version 3
run General-0-20240312-17:37:40-83628
attr configname General
attr datetime 20240312-17:37:40
attr datetimef 20240312-173740
attr experiment General
attr inifile omnetpp.ini
attr iterationvars ""
attr iterationvarsd ""
attr iterationvarsf ""
attr measurement ""
attr network src.NED.Network
attr processid 83628
attr repetition 0
attr replication #0
attr resultdir results
attr runnumber 0
attr seedset 0
config image-path ../../../Thesis_CODE/Omnet/inet/images
config network src.NED.Network
config scheduler-class UDPsocketRTScheduler
config description "Connection with ArduSim"
config **.rt.module-eventlog-recording false
config **.host[*].mobility.module-eventlog-recording false
config **.numUAVs 2
config *.host*.ipv4.arp.typename GlobalArp
config *.host[*].numApps 1
config *.host[*].app[0].typename DroneApp
config *.radioMedium.typename Ieee80211DimensionalRadioMedium
config *.radioMedium.backgroundNoise.power -90dBm
config **.wlan[0].radio.typename Ieee80211DimensionalRadio
config *.host[*].wlan[*].radio.transmitter.power 100mW
config **.wlan[0].mac.typename Ieee80211Mac
config **.wlan[0].mgmtType.typename Ieee80211MgmtAdhoc
config **.wlan[0].opMode "\"p\""
config **.radioMedium.pathLoss.typename FreeSpacePathLoss
config **.radioMedium.obstacleLoss.typename DielectricObstacleLoss
config **.physicalEnvironment.config "xmldoc(\"Val_Ob.xml\")"
config *.host[*].mobility.typename LinearMobility
config *.host[*].mobility.initFromDisplayString false
config *.host[*].mobility.initialX 0m
config *.host[*].mobility.initialY 0m

par Network.rt typename "\"src.NED.RealTime\""
par Network.configurator typename "\"inet.networklayer.configurator.ipv4.Ipv4NetworkConfigurator\""
par Network.configurator minLinkWeight 0.001
par Network.configurator configureIsolatedNetworksSeparatly false
par Network.configurator config "<config>...</config> at content:1"
par Network.configurator assignAddresses true
par Network.configurator assignUniqueAddresses true
par Network.configurator assignDisjunctSubnetAddresses true
par Network.configurator addStaticRoutes true
par Network.configurator addDefaultRoutes true
par Network.configurator addSubnetRoutes true
par Network.configurator addDirectRoutes true
par Network.configurator optimizeRoutes true
par Network.configurator dumpTopology false
par Network.configurator dumpLinks false
par Network.configurator dumpAddresses false
par Network.configurator dumpRoutes false
par Network.configurator dumpConfig "\"\""
par Network.radioMedium.propagation typename "\"inet.physicallayer.wireless.common.propagation.ConstantSpeedPropagation\""
par Network.radioMedium.propagation propagationSpeed 2.99792e+08mps
attr unit mps
par Network.radioMedium.propagation ignoreMovementDuringTransmission true
par Network.radioMedium.propagation ignoreMovementDuringPropagation true
par Network.radioMedium.propagation ignoreMovementDuringReception true
scalar Network.radioMedium.propagation "Arrival computation count" 1407
par Network.radioMedium.analogModel typename "\"inet.physicallayer.wireless.common.analogmodel.packetlevel.DimensionalAnalogModel\""
par Network.radioMedium.analogModel attenuateWithCenterFrequency true
par Network.radioMedium.backgroundNoise typename "\"inet.physicallayer.wireless.common.backgroundnoise.IsotropicDimensionalBackgroundNoise\""
par Network.radioMedium.backgroundNoise powerSpectralDensity "nan dBmWpMHz"
attr unit dBmWpMHz
par Network.radioMedium.backgroundNoise power -90dBm
attr unit dBm
par Network.radioMedium.backgroundNoise bandwidth "nan Hz"
attr unit Hz
par Network.radioMedium.pathLoss typename "\"inet.physicallayer.wireless.common.pathloss.FreeSpacePathLoss\""
par Network.radioMedium.pathLoss alpha 2
par Network.radioMedium.pathLoss systemLoss 0dB
attr unit dB
par Network.radioMedium.obstacleLoss typename "\"inet.physicallayer.wireless.common.obstacleloss.DielectricObstacleLoss\""
par Network.radioMedium.obstacleLoss physicalEnvironmentModule "\"physicalEnvironment\""
par Network.radioMedium.obstacleLoss enableDielectricLoss true
par Network.radioMedium.obstacleLoss enableReflectionLoss true
scalar Network.radioMedium.obstacleLoss "Obstacle loss intersection computation count" 15816087
scalar Network.radioMedium.obstacleLoss "Obstacle loss intersection count" 3442
par Network.radioMedium.mediumLimitCache typename "\"inet.physicallayer.wireless.common.medium.MediumLimitCache\""
par Network.radioMedium.mediumLimitCache centerFrequency 2.4e+09Hz
attr unit Hz
par Network.radioMedium.mediumLimitCache maxSpeed "nan mps"
attr unit mps
par Network.radioMedium.mediumLimitCache maxTransmissionPower "nan W"
attr unit W
par Network.radioMedium.mediumLimitCache minInterferencePower -110dBm
attr unit dBm
par Network.radioMedium.mediumLimitCache minReceptionPower -85dBm
attr unit dBm
par Network.radioMedium.mediumLimitCache maxAntennaGain 0dB
attr unit dB
par Network.radioMedium.mediumLimitCache minInterferenceTime 1e-12s
attr unit s
par Network.radioMedium.mediumLimitCache maxTransmissionDuration 0.01s
attr unit s
par Network.radioMedium.mediumLimitCache maxCommunicationRange "nan m"
attr unit m
par Network.radioMedium.mediumLimitCache maxInterferenceRange "nan m"
attr unit m
par Network.radioMedium.communicationCache typename "\"inet.physicallayer.wireless.common.communicationcache.VectorCommunicationCache\""
par Network.radioMedium typename "\"inet.physicallayer.wireless.ieee80211.packetlevel.Ieee80211DimensionalRadioMedium\""
par Network.radioMedium physicalEnvironmentModule "\"physicalEnvironment\""
par Network.radioMedium signalAnalogRepresentation "\"scalar\""
attr enum unitDisk,scalar,dimensional
par Network.radioMedium rangeFilter "\"\""
par Network.radioMedium radioModeFilter false
par Network.radioMedium listeningFilter false
par Network.radioMedium macAddressFilter false
par Network.radioMedium recordTransmissionLog false
par Network.radioMedium recordReceptionLog false
scalar Network.radioMedium "transmission count" 1407
scalar Network.radioMedium "signal send count" 1407
scalar Network.radioMedium "reception computation count" 1407
scalar Network.radioMedium "interference computation count" 5632
scalar Network.radioMedium "reception decision computation count" 717
scalar Network.radioMedium "listening decision computation count" 3508
scalar Network.radioMedium "reception cache hit" 81.912842267644
attr unit %
scalar Network.radioMedium "interference cache hit" 66.666666666667
attr unit %
scalar Network.radioMedium "noise cache hit" 0
attr unit %
scalar Network.radioMedium "snir cache hit" 50
attr unit %
scalar Network.radioMedium "reception decision cache hit" 50
attr unit %
scalar Network.radioMedium "reception result cache hit" 0
attr unit %
par Network.visualizer.canvasVisualizer.sceneVisualizer typename "\"inet.visualizer.canvas.scene.SceneCanvasVisualizer\""
par Network.visualizer.canvasVisualizer.sceneVisualizer visualizationTargetModule "\"^.^.^\""
par Network.visualizer.canvasVisualizer.sceneVisualizer visualizationSubjectModule "\"^.^.^\""
par Network.visualizer.canvasVisualizer.sceneVisualizer tags "\"\""
par Network.visualizer.canvasVisualizer.sceneVisualizer physicalEnvironmentModule "\"physicalEnvironment\""
par Network.visualizer.canvasVisualizer.sceneVisualizer networkNodeVisualizerModule "\"^.networkNodeVisualizer\""
par Network.visualizer.canvasVisualizer.sceneVisualizer axisLength "nan m"
attr mutable ""
attr unit m
par Network.visualizer.canvasVisualizer.sceneVisualizer animationSpeed 0
par Network.visualizer.canvasVisualizer.sceneVisualizer sceneMinX "nan m"
attr unit m
par Network.visualizer.canvasVisualizer.sceneVisualizer sceneMinY "nan m"
attr unit m
par Network.visualizer.canvasVisualizer.sceneVisualizer sceneMinZ "nan m"
attr unit m
par Network.visualizer.canvasVisualizer.sceneVisualizer sceneMaxX "nan m"
attr unit m
par Network.visualizer.canvasVisualizer.sceneVisualizer sceneMaxY "nan m"
attr unit m
par Network.visualizer.canvasVisualizer.sceneVisualizer sceneMaxZ "nan m"
attr unit m
par Network.visualizer.canvasVisualizer.sceneVisualizer zIndex 0
par Network.visualizer.canvasVisualizer.sceneVisualizer viewAngle "\"x right y down z out\""
attr mutable ""
par Network.visualizer.canvasVisualizer.sceneVisualizer viewScale "\"1 1\""
attr mutable ""
par Network.visualizer.canvasVisualizer.sceneVisualizer viewTranslation "\"0 0\""
attr mutable ""
par Network.visualizer.canvasVisualizer.sceneVisualizer descriptionFigure "\"\""
par Network.visualizer.canvasVisualizer.physicalEnvironmentVisualizer typename "\"inet.visualizer.canvas.environment.PhysicalEnvironmentCanvasVisualizer\""
par Network.visualizer.canvasVisualizer.physicalEnvironmentVisualizer visualizationTargetModule "\"^.^.^\""
par Network.visualizer.canvasVisualizer.physicalEnvironmentVisualizer visualizationSubjectModule "\"^.^.^\""
par Network.visualizer.canvasVisualizer.physicalEnvironmentVisualizer tags "\"\""
par Network.visualizer.canvasVisualizer.physicalEnvironmentVisualizer physicalEnvironmentModule "\"physicalEnvironment\""
par Network.visualizer.canvasVisualizer.physicalEnvironmentVisualizer displayObjects true
par Network.visualizer.canvasVisualizer.physicalEnvironmentVisualizer zIndex 0
par Network.visualizer.canvasVisualizer.networkNodeVisualizer typename "\"inet.visualizer.canvas.scene.NetworkNodeCanvasVisualizer\""
par Network.visualizer.canvasVisualizer.networkNodeVisualizer visualizationTargetModule "\"^.^.^\""
par Network.visualizer.canvasVisualizer.networkNodeVisualizer visualizationSubjectModule "\"^.^.^\""
par Network.visualizer.canvasVisualizer.networkNodeVisualizer tags "\"\""
par Network.visualizer.canvasVisualizer.networkNodeVisualizer nodeFilter "\"*\""
attr mutable ""
par Network.visualizer.canvasVisualizer.networkNodeVisualizer annotationSpacing 4
par Network.visualizer.canvasVisualizer.networkNodeVisualizer placementPenalty 10
par Network.visualizer.canvasVisualizer.networkNodeVisualizer zIndex 0
par Network.visualizer.canvasVisualizer.networkConnectionVisualizer typename "\"inet.visualizer.canvas.scene.NetworkConnectionCanvasVisualizer\""
par Network.visualizer.canvasVisualizer.networkConnectionVisualizer visualizationTargetModule "\"^.^.^\""
par Network.visualizer.canvasVisualizer.networkConnectionVisualizer visualizationSubjectModule "\"^.^.^\""
par Network.visualizer.canvasVisualizer.networkConnectionVisualizer tags "\"\""
par Network.visualizer.canvasVisualizer.networkConnectionVisualizer displayNetworkConnections true
par Network.visualizer.canvasVisualizer.networkConnectionVisualizer nodeFilter "\"\""
attr mutable ""
par Network.visualizer.canvasVisualizer.networkConnectionVisualizer lineColor "\"black\""
par Network.visualizer.canvasVisualizer.networkConnectionVisualizer lineStyle "\"solid\""
par Network.visualizer.canvasVisualizer.networkConnectionVisualizer lineWidth 1
par Network.visualizer.canvasVisualizer.networkConnectionVisualizer zIndex 0
par Network.visualizer.canvasVisualizer.mobilityVisualizer typename "\"inet.visualizer.canvas.mobility.MobilityCanvasVisualizer\""
par Network.visualizer.canvasVisualizer.mobilityVisualizer visualizationTargetModule "\"^.^.^\""
par Network.visualizer.canvasVisualizer.mobilityVisualizer visualizationSubjectModule "\"^.^.^\""
par Network.visualizer.canvasVisualizer.mobilityVisualizer tags "\"\""
par Network.visualizer.canvasVisualizer.mobilityVisualizer networkNodeVisualizerModule "\"^.networkNodeVisualizer\""
par Network.visualizer.canvasVisualizer.mobilityVisualizer displayMobility true
par Network.visualizer.canvasVisualizer.mobilityVisualizer animationSpeed 0
par Network.visualizer.canvasVisualizer.mobilityVisualizer moduleFilter "\"**.mobility\""
attr mutable ""
par Network.visualizer.canvasVisualizer.mobilityVisualizer displayPositions false
par Network.visualizer.canvasVisualizer.mobilityVisualizer positionCircleRadius 4
par Network.visualizer.canvasVisualizer.mobilityVisualizer positionCircleLineWidth 1
par Network.visualizer.canvasVisualizer.mobilityVisualizer positionCircleLineColor "\"dark\""
attr enum light,dark
par Network.visualizer.canvasVisualizer.mobilityVisualizer positionCircleFillColor "\"dark\""
attr enum light,dark
par Network.visualizer.canvasVisualizer.mobilityVisualizer displayOrientations false
par Network.visualizer.canvasVisualizer.mobilityVisualizer orientationPieRadius 32
par Network.visualizer.canvasVisualizer.mobilityVisualizer orientationPieSize 0.2
par Network.visualizer.canvasVisualizer.mobilityVisualizer orientationPieOpacity 0.25
par Network.visualizer.canvasVisualizer.mobilityVisualizer orientationLineColor "\"black\""
par Network.visualizer.canvasVisualizer.mobilityVisualizer orientationLineStyle "\"solid\""
par Network.visualizer.canvasVisualizer.mobilityVisualizer orientationLineWidth 1
par Network.visualizer.canvasVisualizer.mobilityVisualizer orientationFillColor "\"blue\""
par Network.visualizer.canvasVisualizer.mobilityVisualizer displayVelocities false
par Network.visualizer.canvasVisualizer.mobilityVisualizer velocityArrowScale 1
par Network.visualizer.canvasVisualizer.mobilityVisualizer velocityLineColor "\"black\""
par Network.visualizer.canvasVisualizer.mobilityVisualizer velocityLineStyle "\"solid\""
par Network.visualizer.canvasVisualizer.mobilityVisualizer velocityLineWidth 1
par Network.visualizer.canvasVisualizer.mobilityVisualizer displayMovementTrails false
par Network.visualizer.canvasVisualizer.mobilityVisualizer movementTrailLineColor "\"dark\""
attr enum light,dark
par Network.visualizer.canvasVisualizer.mobilityVisualizer movementTrailLineStyle "\"solid\""
par Network.visualizer.canvasVisualizer.mobilityVisualizer movementTrailLineWidth 1
par Network.visualizer.canvasVisualizer.mobilityVisualizer trailLength 100
par Network.visualizer.canvasVisualizer.mobilityVisualizer zIndex 0
par Network.visualizer.canvasVisualizer.statisticVisualizer typename "\"inet.visualizer.canvas.common.StatisticCanvasVisualizer\""
par Network.visualizer.canvasVisualizer.statisticVisualizer visualizationTargetModule "\"^.^.^\""
par Network.visualizer.canvasVisualizer.statisticVisualizer visualizationSubjectModule "\"^.^.^\""
par Network.visualizer.canvasVisualizer.statisticVisualizer tags "\"\""
par Network.visualizer.canvasVisualizer.statisticVisualizer networkNodeVisualizerModule "\"^.networkNodeVisualizer\""
par Network.visualizer.canvasVisualizer.statisticVisualizer displayStatistics true
par Network.visualizer.canvasVisualizer.statisticVisualizer signalName "\"\""
par Network.visualizer.canvasVisualizer.statisticVisualizer statisticName "\"\""
par Network.visualizer.canvasVisualizer.statisticVisualizer statisticUnit "\"\""
par Network.visualizer.canvasVisualizer.statisticVisualizer statisticExpression "\"\""
par Network.visualizer.canvasVisualizer.statisticVisualizer sourceFilter "\"**\""
attr mutable ""
par Network.visualizer.canvasVisualizer.statisticVisualizer format "\"%n: %v %u\""
attr mutable ""
par Network.visualizer.canvasVisualizer.statisticVisualizer unit "\"\""
par Network.visualizer.canvasVisualizer.statisticVisualizer font "\"<default>\""
par Network.visualizer.canvasVisualizer.statisticVisualizer textColor "\"black\""
par Network.visualizer.canvasVisualizer.statisticVisualizer backgroundColor "\"white\""
par Network.visualizer.canvasVisualizer.statisticVisualizer opacity 1
par Network.visualizer.canvasVisualizer.statisticVisualizer placementHint "\"top\""
par Network.visualizer.canvasVisualizer.statisticVisualizer placementPriority 0
par Network.visualizer.canvasVisualizer.statisticVisualizer zIndex 10
par Network.visualizer.canvasVisualizer.statisticVisualizer propertyName "\"\""
par Network.visualizer.canvasVisualizer.statisticVisualizer propertyIndex "\"\""
par Network.visualizer.canvasVisualizer.infoVisualizer typename "\"inet.visualizer.canvas.common.InfoCanvasVisualizer\""
par Network.visualizer.canvasVisualizer.infoVisualizer visualizationTargetModule "\"^.^.^\""
par Network.visualizer.canvasVisualizer.infoVisualizer visualizationSubjectModule "\"^.^.^\""
par Network.visualizer.canvasVisualizer.infoVisualizer tags "\"\""
par Network.visualizer.canvasVisualizer.infoVisualizer networkNodeVisualizerModule "\"^.networkNodeVisualizer\""
par Network.visualizer.canvasVisualizer.infoVisualizer displayInfos true
par Network.visualizer.canvasVisualizer.infoVisualizer modules "\"\""
attr mutable ""
par Network.visualizer.canvasVisualizer.infoVisualizer format "\"%t\""
attr mutable ""
par Network.visualizer.canvasVisualizer.infoVisualizer font "\"<default>\""
par Network.visualizer.canvasVisualizer.infoVisualizer textColor "\"black\""
par Network.visualizer.canvasVisualizer.infoVisualizer backgroundColor "\"white\""
par Network.visualizer.canvasVisualizer.infoVisualizer opacity 1
par Network.visualizer.canvasVisualizer.infoVisualizer placementHint "\"top\""
par Network.visualizer.canvasVisualizer.infoVisualizer placementPriority 0
par Network.visualizer.canvasVisualizer.infoVisualizer zIndex 10
par Network.visualizer.canvasVisualizer.energyStorageVisualizer typename "\"inet.visualizer.canvas.power.EnergyStorageCanvasVisualizer\""
par Network.visualizer.canvasVisualizer.energyStorageVisualizer visualizationTargetModule "\"^.^.^\""
par Network.visualizer.canvasVisualizer.energyStorageVisualizer visualizationSubjectModule "\"^.^.^\""
par Network.visualizer.canvasVisualizer.energyStorageVisualizer tags "\"\""
par Network.visualizer.canvasVisualizer.energyStorageVisualizer networkNodeVisualizerModule "\"^.networkNodeVisualizer\""
par Network.visualizer.canvasVisualizer.energyStorageVisualizer displayEnergyStorages false
par Network.visualizer.canvasVisualizer.energyStorageVisualizer energyStorageFilter "\"**\""
par Network.visualizer.canvasVisualizer.energyStorageVisualizer color "\"green\""
par Network.visualizer.canvasVisualizer.energyStorageVisualizer width 8
par Network.visualizer.canvasVisualizer.energyStorageVisualizer height 24
par Network.visualizer.canvasVisualizer.energyStorageVisualizer spacing 2
par Network.visualizer.canvasVisualizer.energyStorageVisualizer placementHint "\"right\""
par Network.visualizer.canvasVisualizer.energyStorageVisualizer placementPriority 0
par Network.visualizer.canvasVisualizer.energyStorageVisualizer zIndex 10
par Network.visualizer.canvasVisualizer.mediumVisualizer typename "\"inet.visualizer.canvas.physicallayer.MediumCanvasVisualizer\""
par Network.visualizer.canvasVisualizer.mediumVisualizer visualizationTargetModule "\"^.^.^\""
par Network.visualizer.canvasVisualizer.mediumVisualizer visualizationSubjectModule "\"^.^.^\""
par Network.visualizer.canvasVisualizer.mediumVisualizer tags "\"\""
par Network.visualizer.canvasVisualizer.mediumVisualizer mediumModule "\"radioMedium\""
par Network.visualizer.canvasVisualizer.mediumVisualizer networkNodeVisualizerModule "\"^.networkNodeVisualizer\""
par Network.visualizer.canvasVisualizer.mediumVisualizer nodeFilter "\"*\""
attr mutable ""
par Network.visualizer.canvasVisualizer.mediumVisualizer interfaceFilter "\"*\""
attr mutable ""
par Network.visualizer.canvasVisualizer.mediumVisualizer packetFilter "(omnetpp::cValueHolder)holder: \"*\""
attr mutable ""
par Network.visualizer.canvasVisualizer.mediumVisualizer displaySignals false
par Network.visualizer.canvasVisualizer.mediumVisualizer signalColor "\"dark\""
attr enum light,dark
par Network.visualizer.canvasVisualizer.mediumVisualizer signalPropagationAnimationSpeed "nan "
attr mutable ""
par Network.visualizer.canvasVisualizer.mediumVisualizer signalPropagationAnimationTime 1s
attr unit s
par Network.visualizer.canvasVisualizer.mediumVisualizer signalPropagationAdditionalTime 0s
attr unit s
par Network.visualizer.canvasVisualizer.mediumVisualizer signalTransmissionAnimationSpeed "nan "
attr mutable ""
par Network.visualizer.canvasVisualizer.mediumVisualizer signalTransmissionAnimationTime 1s
attr unit s
par Network.visualizer.canvasVisualizer.mediumVisualizer signalAnimationSpeedChangeTimeMode "\"realTime\""
attr enum realTime,animationTime,simulationTime
par Network.visualizer.canvasVisualizer.mediumVisualizer signalAnimationSpeedChangeTime 1s
attr unit s
par Network.visualizer.canvasVisualizer.mediumVisualizer displaySignalDepartures false
par Network.visualizer.canvasVisualizer.mediumVisualizer signalDepartureImage "\"misc/signal_departure.png\""
par Network.visualizer.canvasVisualizer.mediumVisualizer signalDeparturePlacementHint "\"topCenter\""
par Network.visualizer.canvasVisualizer.mediumVisualizer signalDeparturePlacementPriority 1
par Network.visualizer.canvasVisualizer.mediumVisualizer displaySignalArrivals false
par Network.visualizer.canvasVisualizer.mediumVisualizer signalArrivalImage "\"misc/signal_arrival.png\""
par Network.visualizer.canvasVisualizer.mediumVisualizer signalArrivalPlacementHint "\"topCenter\""
par Network.visualizer.canvasVisualizer.mediumVisualizer signalArrivalPlacementPriority -1
par Network.visualizer.canvasVisualizer.mediumVisualizer displayCommunicationRanges false
par Network.visualizer.canvasVisualizer.mediumVisualizer communicationRangeLineColor "\"blue\""
par Network.visualizer.canvasVisualizer.mediumVisualizer communicationRangeLineStyle "\"solid\""
par Network.visualizer.canvasVisualizer.mediumVisualizer communicationRangeLineWidth 1
par Network.visualizer.canvasVisualizer.mediumVisualizer displayInterferenceRanges false
par Network.visualizer.canvasVisualizer.mediumVisualizer interferenceRangeLineColor "\"gray\""
par Network.visualizer.canvasVisualizer.mediumVisualizer interferenceRangeLineStyle "\"solid\""
par Network.visualizer.canvasVisualizer.mediumVisualizer interferenceRangeLineWidth 1
par Network.visualizer.canvasVisualizer.mediumVisualizer autoPowerAxis true
par Network.visualizer.canvasVisualizer.mediumVisualizer signalMinPower "inf dBmW"
attr unit dBmW
par Network.visualizer.canvasVisualizer.mediumVisualizer signalMaxPower 0dBmW
attr unit dBmW
par Network.visualizer.canvasVisualizer.mediumVisualizer signalMinPowerDensity "inf dBmWpMHz"
attr unit dBmWpMHz
par Network.visualizer.canvasVisualizer.mediumVisualizer signalMaxPowerDensity "-inf dBmWpMHz"
attr unit dBmWpMHz
par Network.visualizer.canvasVisualizer.mediumVisualizer autoTimeAxis true
par Network.visualizer.canvasVisualizer.mediumVisualizer signalMinTime 0s
attr unit s
par Network.visualizer.canvasVisualizer.mediumVisualizer signalMaxTime 0s
attr unit s
par Network.visualizer.canvasVisualizer.mediumVisualizer autoFrequencyAxis true
par Network.visualizer.canvasVisualizer.mediumVisualizer signalMinFrequency "inf Hz"
attr unit Hz
par Network.visualizer.canvasVisualizer.mediumVisualizer signalMaxFrequency "-inf Hz"
attr unit Hz
par Network.visualizer.canvasVisualizer.mediumVisualizer displayMainPowerDensityMap false
par Network.visualizer.canvasVisualizer.mediumVisualizer mainPowerDensityMapPixmapDensity 1
par Network.visualizer.canvasVisualizer.mediumVisualizer mainPowerDensityMapMinX 0
par Network.visualizer.canvasVisualizer.mediumVisualizer mainPowerDensityMapMaxX "nan "
par Network.visualizer.canvasVisualizer.mediumVisualizer mainPowerDensityMapMinY 0
par Network.visualizer.canvasVisualizer.mediumVisualizer mainPowerDensityMapMaxY "nan "
par Network.visualizer.canvasVisualizer.mediumVisualizer mainPowerDensityMapZ 0
par Network.visualizer.canvasVisualizer.mediumVisualizer mainPowerDensityMapFigureXTickCount 3
par Network.visualizer.canvasVisualizer.mediumVisualizer mainPowerDensityMapFigureYTickCount 3
par Network.visualizer.canvasVisualizer.mediumVisualizer displayPowerDensityMaps false
par Network.visualizer.canvasVisualizer.mediumVisualizer powerDensityMapMode "\"auto\""
attr enum total,signal,auto
par Network.visualizer.canvasVisualizer.mediumVisualizer powerDensityMapPixelMode "\"mean\""
attr enum sample,partition,mean
par Network.visualizer.canvasVisualizer.mediumVisualizer powerDensityMapApproximationSize 10
par Network.visualizer.canvasVisualizer.mediumVisualizer powerDensityMapCenterFrequency "nan Hz"
attr mutable ""
attr unit Hz
par Network.visualizer.canvasVisualizer.mediumVisualizer powerDensityMapBandwidth 0Hz
attr mutable ""
attr unit Hz
par Network.visualizer.canvasVisualizer.mediumVisualizer powerDensityMapFigureWidth 200
par Network.visualizer.canvasVisualizer.mediumVisualizer powerDensityMapFigureHeight 120
par Network.visualizer.canvasVisualizer.mediumVisualizer powerDensityMapPixmapWidth 200
par Network.visualizer.canvasVisualizer.mediumVisualizer powerDensityMapPixmapHeight 120
par Network.visualizer.canvasVisualizer.mediumVisualizer powerDensityMapZ 0
par Network.visualizer.canvasVisualizer.mediumVisualizer powerDensityMapFigureXTickCount 3
par Network.visualizer.canvasVisualizer.mediumVisualizer powerDensityMapFigureYTickCount 3
par Network.visualizer.canvasVisualizer.mediumVisualizer displaySpectrums false
par Network.visualizer.canvasVisualizer.mediumVisualizer spectrumMode "\"auto\""
attr enum total,signal,auto
par Network.visualizer.canvasVisualizer.mediumVisualizer spectrumFigureWidth 200
par Network.visualizer.canvasVisualizer.mediumVisualizer spectrumFigureHeight 120
par Network.visualizer.canvasVisualizer.mediumVisualizer spectrumFigureXTickCount 3
par Network.visualizer.canvasVisualizer.mediumVisualizer spectrumFigureYTickCount 5
par Network.visualizer.canvasVisualizer.mediumVisualizer spectrumFigureInterpolationSize 5
par Network.visualizer.canvasVisualizer.mediumVisualizer spectrumPlacementHint "\"bottomCenter\""
par Network.visualizer.canvasVisualizer.mediumVisualizer spectrumPlacementPriority -1
par Network.visualizer.canvasVisualizer.mediumVisualizer displaySpectrograms false
par Network.visualizer.canvasVisualizer.mediumVisualizer spectrogramMode "\"auto\""
attr enum total,signal,auto
par Network.visualizer.canvasVisualizer.mediumVisualizer spectrogramPixelMode "\"mean\""
attr enum sample,partition,mean
par Network.visualizer.canvasVisualizer.mediumVisualizer spectrogramFigureWidth 200
par Network.visualizer.canvasVisualizer.mediumVisualizer spectrogramFigureHeight 120
par Network.visualizer.canvasVisualizer.mediumVisualizer spectrogramPixmapWidth 200
par Network.visualizer.canvasVisualizer.mediumVisualizer spectrogramPixmapHeight 120
par Network.visualizer.canvasVisualizer.mediumVisualizer spectrogramFigureXTickCount 3
par Network.visualizer.canvasVisualizer.mediumVisualizer spectrogramFigureYTickCount 5
par Network.visualizer.canvasVisualizer.mediumVisualizer spectrogramPlacementHint "\"bottomCenter\""
par Network.visualizer.canvasVisualizer.mediumVisualizer spectrogramPlacementPriority -1
par Network.visualizer.canvasVisualizer.mediumVisualizer zIndex 0
par Network.visualizer.canvasVisualizer.mediumVisualizer signalShape "\"ring\""
attr enum ring,sphere
par Network.visualizer.canvasVisualizer.mediumVisualizer signalOpacity 0.5
par Network.visualizer.canvasVisualizer.mediumVisualizer signalRingCount 20
par Network.visualizer.canvasVisualizer.mediumVisualizer signalRingSize 50m
attr unit m
par Network.visualizer.canvasVisualizer.mediumVisualizer signalFadingDistance 50m
attr unit m
par Network.visualizer.canvasVisualizer.mediumVisualizer signalFadingFactor 1.2
par Network.visualizer.canvasVisualizer.mediumVisualizer signalWaveCount 20
par Network.visualizer.canvasVisualizer.mediumVisualizer signalWaveLength 50m
attr unit m
par Network.visualizer.canvasVisualizer.mediumVisualizer signalWaveWidth 10m
attr unit m
par Network.visualizer.canvasVisualizer.mediumVisualizer signalWaveFadingAnimationSpeedFactor 1
par Network.visualizer.canvasVisualizer.mediumVisualizer displayCommunicationHeat false
par Network.visualizer.canvasVisualizer.obstacleLossVisualizer typename "\"inet.visualizer.canvas.physicallayer.TracingObstacleLossCanvasVisualizer\""
par Network.visualizer.canvasVisualizer.obstacleLossVisualizer visualizationTargetModule "\"^.^.^\""
par Network.visualizer.canvasVisualizer.obstacleLossVisualizer visualizationSubjectModule "\"^.^.^\""
par Network.visualizer.canvasVisualizer.obstacleLossVisualizer tags "\"\""
par Network.visualizer.canvasVisualizer.obstacleLossVisualizer displayIntersections false
par Network.visualizer.canvasVisualizer.obstacleLossVisualizer intersectionLineColor "\"red\""
par Network.visualizer.canvasVisualizer.obstacleLossVisualizer intersectionLineStyle "\"solid\""
par Network.visualizer.canvasVisualizer.obstacleLossVisualizer intersectionLineWidth 1
par Network.visualizer.canvasVisualizer.obstacleLossVisualizer displayFaceNormalVectors false
par Network.visualizer.canvasVisualizer.obstacleLossVisualizer faceNormalLineColor "\"grey\""
par Network.visualizer.canvasVisualizer.obstacleLossVisualizer faceNormalLineStyle "\"solid\""
par Network.visualizer.canvasVisualizer.obstacleLossVisualizer faceNormalLineWidth 1
par Network.visualizer.canvasVisualizer.obstacleLossVisualizer fadeOutMode "\"realTime\""
attr enum realTime,animationTime,simulationTime
par Network.visualizer.canvasVisualizer.obstacleLossVisualizer fadeOutTime 1s
attr unit s
par Network.visualizer.canvasVisualizer.obstacleLossVisualizer fadeOutAnimationSpeed 0
par Network.visualizer.canvasVisualizer.obstacleLossVisualizer zIndex 0
par Network.visualizer.canvasVisualizer.packetDropVisualizer typename "\"inet.visualizer.canvas.common.PacketDropCanvasVisualizer\""
par Network.visualizer.canvasVisualizer.packetDropVisualizer visualizationTargetModule "\"^.^.^\""
par Network.visualizer.canvasVisualizer.packetDropVisualizer visualizationSubjectModule "\"^.^.^\""
par Network.visualizer.canvasVisualizer.packetDropVisualizer tags "\"\""
par Network.visualizer.canvasVisualizer.packetDropVisualizer displayPacketDrops false
par Network.visualizer.canvasVisualizer.packetDropVisualizer nodeFilter "\"*\""
attr mutable ""
par Network.visualizer.canvasVisualizer.packetDropVisualizer interfaceFilter "\"*\""
attr mutable ""
par Network.visualizer.canvasVisualizer.packetDropVisualizer packetFilter "(omnetpp::cValueHolder)holder: \"*\""
attr mutable ""
par Network.visualizer.canvasVisualizer.packetDropVisualizer detailsFilter "\"*\""
attr mutable ""
par Network.visualizer.canvasVisualizer.packetDropVisualizer icon "\"msg/packet_s\""
par Network.visualizer.canvasVisualizer.packetDropVisualizer iconTintAmount 1
par Network.visualizer.canvasVisualizer.packetDropVisualizer iconTintColor "\"dark\""
par Network.visualizer.canvasVisualizer.packetDropVisualizer labelFormat "\"%n\""
attr mutable ""
par Network.visualizer.canvasVisualizer.packetDropVisualizer labelFont "\"<default>\""
par Network.visualizer.canvasVisualizer.packetDropVisualizer labelColor "\"black\""
par Network.visualizer.canvasVisualizer.packetDropVisualizer fadeOutMode "\"realTime\""
attr enum realTime,animationTime,simulationTime
par Network.visualizer.canvasVisualizer.packetDropVisualizer fadeOutTime 1s
attr unit s
par Network.visualizer.canvasVisualizer.packetDropVisualizer fadeOutAnimationSpeed 0
par Network.visualizer.canvasVisualizer.packetDropVisualizer zIndex 10
par Network.visualizer.canvasVisualizer.packetDropVisualizer dx 32
par Network.visualizer.canvasVisualizer.packetDropVisualizer dy 64
par Network.visualizer.canvasVisualizer.packetFlowVisualizer typename "\"inet.visualizer.canvas.flow.PacketFlowCanvasVisualizer\""
par Network.visualizer.canvasVisualizer.packetFlowVisualizer visualizationTargetModule "\"^.^.^\""
par Network.visualizer.canvasVisualizer.packetFlowVisualizer visualizationSubjectModule "\"^.^.^\""
par Network.visualizer.canvasVisualizer.packetFlowVisualizer tags "\"\""
par Network.visualizer.canvasVisualizer.packetFlowVisualizer displayRoutes false
par Network.visualizer.canvasVisualizer.packetFlowVisualizer startPathSignal "\"packetFlowStarted\""
par Network.visualizer.canvasVisualizer.packetFlowVisualizer extendPathSignal "\"packetReceivedFromLower\""
par Network.visualizer.canvasVisualizer.packetFlowVisualizer endPathSignal "\"packetFlowEnded\""
par Network.visualizer.canvasVisualizer.packetFlowVisualizer nodeFilter "\"*\""
attr mutable ""
par Network.visualizer.canvasVisualizer.packetFlowVisualizer packetFilter "(omnetpp::cValueHolder)holder: \"*\""
attr mutable ""
par Network.visualizer.canvasVisualizer.packetFlowVisualizer lineColor "\"dark\""
attr enum light,dark
par Network.visualizer.canvasVisualizer.packetFlowVisualizer lineStyle "\"dashed\""
par Network.visualizer.canvasVisualizer.packetFlowVisualizer lineWidth 3
par Network.visualizer.canvasVisualizer.packetFlowVisualizer lineSmooth false
par Network.visualizer.canvasVisualizer.packetFlowVisualizer lineShift 16
par Network.visualizer.canvasVisualizer.packetFlowVisualizer lineShiftMode "\"normal\""
par Network.visualizer.canvasVisualizer.packetFlowVisualizer lineContactSpacing 3
par Network.visualizer.canvasVisualizer.packetFlowVisualizer lineContactMode "\"rectangular\""
attr enum circular,rectangular
par Network.visualizer.canvasVisualizer.packetFlowVisualizer labelFormat "\"%L %p pk (%l)\""
par Network.visualizer.canvasVisualizer.packetFlowVisualizer labelFont "\"<default>, 8px\""
par Network.visualizer.canvasVisualizer.packetFlowVisualizer labelColor "\"\""
par Network.visualizer.canvasVisualizer.packetFlowVisualizer fadeOutMode "\"realTime\""
attr enum realTime,animationTime,simulationTime
par Network.visualizer.canvasVisualizer.packetFlowVisualizer fadeOutTime 0s
attr unit s
par Network.visualizer.canvasVisualizer.packetFlowVisualizer fadeOutAnimationSpeed 0
par Network.visualizer.canvasVisualizer.packetFlowVisualizer zIndex 4
par Network.visualizer.canvasVisualizer.queueVisualizer typename "\"inet.visualizer.canvas.common.QueueCanvasVisualizer\""
par Network.visualizer.canvasVisualizer.queueVisualizer visualizationTargetModule "\"^.^.^\""
par Network.visualizer.canvasVisualizer.queueVisualizer visualizationSubjectModule "\"^.^.^\""
par Network.visualizer.canvasVisualizer.queueVisualizer tags "\"\""
par Network.visualizer.canvasVisualizer.queueVisualizer networkNodeVisualizerModule "\"^.networkNodeVisualizer\""
par Network.visualizer.canvasVisualizer.queueVisualizer displayQueues false
par Network.visualizer.canvasVisualizer.queueVisualizer queueFilter "\"**\""
par Network.visualizer.canvasVisualizer.queueVisualizer color "\"blue\""
par Network.visualizer.canvasVisualizer.queueVisualizer width 8
par Network.visualizer.canvasVisualizer.queueVisualizer height 24
par Network.visualizer.canvasVisualizer.queueVisualizer spacing 2
par Network.visualizer.canvasVisualizer.queueVisualizer placementHint "\"right\""
par Network.visualizer.canvasVisualizer.queueVisualizer placementPriority 0
par Network.visualizer.canvasVisualizer.queueVisualizer zIndex 10
par Network.visualizer.canvasVisualizer.gateScheduleVisualizer typename "\"inet.visualizer.canvas.common.GateScheduleCanvasVisualizer\""
par Network.visualizer.canvasVisualizer.gateScheduleVisualizer visualizationTargetModule "\"^.^.^\""
par Network.visualizer.canvasVisualizer.gateScheduleVisualizer visualizationSubjectModule "\"^.^.^\""
par Network.visualizer.canvasVisualizer.gateScheduleVisualizer tags "\"\""
par Network.visualizer.canvasVisualizer.gateScheduleVisualizer networkNodeVisualizerModule "\"^.networkNodeVisualizer\""
par Network.visualizer.canvasVisualizer.gateScheduleVisualizer displayGateSchedules false
par Network.visualizer.canvasVisualizer.gateScheduleVisualizer labelFormat "\"%i %D\""
par Network.visualizer.canvasVisualizer.gateScheduleVisualizer gateFilter "\"**\""
par Network.visualizer.canvasVisualizer.gateScheduleVisualizer width 100
par Network.visualizer.canvasVisualizer.gateScheduleVisualizer height 8
par Network.visualizer.canvasVisualizer.gateScheduleVisualizer spacing 2
par Network.visualizer.canvasVisualizer.gateScheduleVisualizer placementHint "\"right\""
par Network.visualizer.canvasVisualizer.gateScheduleVisualizer placementPriority 0
par Network.visualizer.canvasVisualizer.gateScheduleVisualizer displayDuration 0s
attr mutable ""
attr unit s
par Network.visualizer.canvasVisualizer.gateScheduleVisualizer currentTimePosition 50
par Network.visualizer.canvasVisualizer.gateScheduleVisualizer zIndex 10
par Network.visualizer.canvasVisualizer.radioVisualizer typename "\"inet.visualizer.canvas.physicallayer.RadioCanvasVisualizer\""
par Network.visualizer.canvasVisualizer.radioVisualizer visualizationTargetModule "\"^.^.^\""
par Network.visualizer.canvasVisualizer.radioVisualizer visualizationSubjectModule "\"^.^.^\""
par Network.visualizer.canvasVisualizer.radioVisualizer tags "\"\""
par Network.visualizer.canvasVisualizer.radioVisualizer networkNodeVisualizerModule "\"^.networkNodeVisualizer\""
par Network.visualizer.canvasVisualizer.radioVisualizer displayRadios false
par Network.visualizer.canvasVisualizer.radioVisualizer displayRadioMode true
par Network.visualizer.canvasVisualizer.radioVisualizer displayReceptionState true
par Network.visualizer.canvasVisualizer.radioVisualizer displayTransmissionState true
par Network.visualizer.canvasVisualizer.radioVisualizer displayAntennaLobes false
par Network.visualizer.canvasVisualizer.radioVisualizer radioFilter "\"**\""
attr mutable ""
par Network.visualizer.canvasVisualizer.radioVisualizer radioModeImages "\"block/process_vs block/timer_vs block/wrx_vs block/wtx_vs block/wrxtx_vs block/cogwheel_vs\""
par Network.visualizer.canvasVisualizer.radioVisualizer receptionStateImages "\"- - misc/receiving misc/receiving\""
par Network.visualizer.canvasVisualizer.radioVisualizer transmissionStateImages "\"- - misc/transmitting\""
par Network.visualizer.canvasVisualizer.radioVisualizer width 16
par Network.visualizer.canvasVisualizer.radioVisualizer height 16
par Network.visualizer.canvasVisualizer.radioVisualizer placementHint "\"bottomRight\""
par Network.visualizer.canvasVisualizer.radioVisualizer placementPriority 0
par Network.visualizer.canvasVisualizer.radioVisualizer antennaLobeNormalize false
par Network.visualizer.canvasVisualizer.radioVisualizer antennaLobeRelativeLabels false
par Network.visualizer.canvasVisualizer.radioVisualizer antennaLobePlaneGlobal true
par Network.visualizer.canvasVisualizer.radioVisualizer antennaLobePlane "\"view\""
attr enum view,xy,xz,yz
par Network.visualizer.canvasVisualizer.radioVisualizer antennaLobeMode "\"logarithmic\""
attr enum logarithmic,linear
par Network.visualizer.canvasVisualizer.radioVisualizer antennaLobeLogarithmicBase 10
par Network.visualizer.canvasVisualizer.radioVisualizer antennaLobeLogarithmicScale 100
par Network.visualizer.canvasVisualizer.radioVisualizer antennaLobeRadius 100
par Network.visualizer.canvasVisualizer.radioVisualizer antennaLobeStep 10deg
attr unit deg
par Network.visualizer.canvasVisualizer.radioVisualizer antennaLobeOpacity 0.25
par Network.visualizer.canvasVisualizer.radioVisualizer antennaLobeLineSmooth true
par Network.visualizer.canvasVisualizer.radioVisualizer antennaLobeLineColor "\"black\""
par Network.visualizer.canvasVisualizer.radioVisualizer antennaLobeLineStyle "\"solid\""
par Network.visualizer.canvasVisualizer.radioVisualizer antennaLobeLineWidth 1
par Network.visualizer.canvasVisualizer.radioVisualizer antennaLobeFillColor "\"white\""
par Network.visualizer.canvasVisualizer.radioVisualizer zIndex 10
par Network.visualizer.canvasVisualizer.physicalLinkVisualizer typename "\"inet.visualizer.canvas.physicallayer.PhysicalLinkCanvasVisualizer\""
par Network.visualizer.canvasVisualizer.physicalLinkVisualizer visualizationTargetModule "\"^.^.^\""
par Network.visualizer.canvasVisualizer.physicalLinkVisualizer visualizationSubjectModule "\"^.^.^\""
par Network.visualizer.canvasVisualizer.physicalLinkVisualizer tags "\"\""
par Network.visualizer.canvasVisualizer.physicalLinkVisualizer displayLinks false
par Network.visualizer.canvasVisualizer.physicalLinkVisualizer activityLevel "\"service\""
attr enum service,peer,protocol
par Network.visualizer.canvasVisualizer.physicalLinkVisualizer nodeFilter "\"*\""
attr mutable ""
par Network.visualizer.canvasVisualizer.physicalLinkVisualizer interfaceFilter "\"*\""
attr mutable ""
par Network.visualizer.canvasVisualizer.physicalLinkVisualizer packetFilter "(omnetpp::cValueHolder)holder: \"*\""
attr mutable ""
par Network.visualizer.canvasVisualizer.physicalLinkVisualizer lineColor "\"olive\""
par Network.visualizer.canvasVisualizer.physicalLinkVisualizer lineStyle "\"dotted\""
par Network.visualizer.canvasVisualizer.physicalLinkVisualizer lineWidth 3
par Network.visualizer.canvasVisualizer.physicalLinkVisualizer lineShift 16
par Network.visualizer.canvasVisualizer.physicalLinkVisualizer lineShiftMode "\"normal\""
par Network.visualizer.canvasVisualizer.physicalLinkVisualizer lineContactSpacing 3
par Network.visualizer.canvasVisualizer.physicalLinkVisualizer lineContactMode "\"rectangular\""
attr enum circular,rectangular
par Network.visualizer.canvasVisualizer.physicalLinkVisualizer labelFormat "\"%n\""
par Network.visualizer.canvasVisualizer.physicalLinkVisualizer labelFont "\"<default>, 8px\""
par Network.visualizer.canvasVisualizer.physicalLinkVisualizer labelColor "\"olive\""
par Network.visualizer.canvasVisualizer.physicalLinkVisualizer fadeOutMode "\"realTime\""
attr enum realTime,animationTime,simulationTime
par Network.visualizer.canvasVisualizer.physicalLinkVisualizer fadeOutTime 1s
attr unit s
par Network.visualizer.canvasVisualizer.physicalLinkVisualizer fadeOutAnimationSpeed 0
par Network.visualizer.canvasVisualizer.physicalLinkVisualizer holdAnimationTime 0s
attr unit s
par Network.visualizer.canvasVisualizer.physicalLinkVisualizer zIndex 1
par Network.visualizer.canvasVisualizer.interfaceTableVisualizer typename "\"inet.visualizer.canvas.linklayer.InterfaceTableCanvasVisualizer\""
par Network.visualizer.canvasVisualizer.interfaceTableVisualizer visualizationTargetModule "\"^.^.^\""
par Network.visualizer.canvasVisualizer.interfaceTableVisualizer visualizationSubjectModule "\"^.^.^\""
par Network.visualizer.canvasVisualizer.interfaceTableVisualizer tags "\"\""
par Network.visualizer.canvasVisualizer.interfaceTableVisualizer networkNodeVisualizerModule "\"^.networkNodeVisualizer\""
par Network.visualizer.canvasVisualizer.interfaceTableVisualizer displayInterfaceTables false
par Network.visualizer.canvasVisualizer.interfaceTableVisualizer displayWiredInterfacesAtConnections true
par Network.visualizer.canvasVisualizer.interfaceTableVisualizer displayBackground false
par Network.visualizer.canvasVisualizer.interfaceTableVisualizer nodeFilter "\"*\""
attr mutable ""
par Network.visualizer.canvasVisualizer.interfaceTableVisualizer interfaceFilter "\"not(lo*)\""
attr mutable ""
par Network.visualizer.canvasVisualizer.interfaceTableVisualizer format "\"%N %\\\\%a%/%l\""
attr mutable ""
par Network.visualizer.canvasVisualizer.interfaceTableVisualizer placementHint "\"top\""
par Network.visualizer.canvasVisualizer.interfaceTableVisualizer placementPriority 0
par Network.visualizer.canvasVisualizer.interfaceTableVisualizer font "\"<default>\""
par Network.visualizer.canvasVisualizer.interfaceTableVisualizer textColor "\"#005030\""
par Network.visualizer.canvasVisualizer.interfaceTableVisualizer backgroundColor "\"white\""
par Network.visualizer.canvasVisualizer.interfaceTableVisualizer opacity 1
par Network.visualizer.canvasVisualizer.interfaceTableVisualizer zIndex 10
par Network.visualizer.canvasVisualizer.dataLinkVisualizer typename "\"inet.visualizer.canvas.linklayer.DataLinkCanvasVisualizer\""
par Network.visualizer.canvasVisualizer.dataLinkVisualizer visualizationTargetModule "\"^.^.^\""
par Network.visualizer.canvasVisualizer.dataLinkVisualizer visualizationSubjectModule "\"^.^.^\""
par Network.visualizer.canvasVisualizer.dataLinkVisualizer tags "\"\""
par Network.visualizer.canvasVisualizer.dataLinkVisualizer displayLinks false
par Network.visualizer.canvasVisualizer.dataLinkVisualizer activityLevel "\"service\""
attr enum service,peer,protocol
par Network.visualizer.canvasVisualizer.dataLinkVisualizer nodeFilter "\"*\""
attr mutable ""
par Network.visualizer.canvasVisualizer.dataLinkVisualizer interfaceFilter "\"*\""
attr mutable ""
par Network.visualizer.canvasVisualizer.dataLinkVisualizer packetFilter "(omnetpp::cValueHolder)holder: \"*\""
attr mutable ""
par Network.visualizer.canvasVisualizer.dataLinkVisualizer lineColor "\"darkcyan\""
par Network.visualizer.canvasVisualizer.dataLinkVisualizer lineStyle "\"solid\""
par Network.visualizer.canvasVisualizer.dataLinkVisualizer lineWidth 3
par Network.visualizer.canvasVisualizer.dataLinkVisualizer lineShift 16
par Network.visualizer.canvasVisualizer.dataLinkVisualizer lineShiftMode "\"normal\""
par Network.visualizer.canvasVisualizer.dataLinkVisualizer lineContactSpacing 3
par Network.visualizer.canvasVisualizer.dataLinkVisualizer lineContactMode "\"rectangular\""
attr enum circular,rectangular
par Network.visualizer.canvasVisualizer.dataLinkVisualizer labelFormat "\"%n\""
par Network.visualizer.canvasVisualizer.dataLinkVisualizer labelFont "\"<default>, 8px\""
par Network.visualizer.canvasVisualizer.dataLinkVisualizer labelColor "\"darkcyan\""
par Network.visualizer.canvasVisualizer.dataLinkVisualizer fadeOutMode "\"realTime\""
attr enum realTime,animationTime,simulationTime
par Network.visualizer.canvasVisualizer.dataLinkVisualizer fadeOutTime 1s
attr unit s
par Network.visualizer.canvasVisualizer.dataLinkVisualizer fadeOutAnimationSpeed 0
par Network.visualizer.canvasVisualizer.dataLinkVisualizer holdAnimationTime 0s
attr unit s
par Network.visualizer.canvasVisualizer.dataLinkVisualizer zIndex 2
par Network.visualizer.canvasVisualizer.linkBreakVisualizer typename "\"inet.visualizer.canvas.linklayer.LinkBreakCanvasVisualizer\""
par Network.visualizer.canvasVisualizer.linkBreakVisualizer visualizationTargetModule "\"^.^.^\""
par Network.visualizer.canvasVisualizer.linkBreakVisualizer visualizationSubjectModule "\"^.^.^\""
par Network.visualizer.canvasVisualizer.linkBreakVisualizer tags "\"\""
par Network.visualizer.canvasVisualizer.linkBreakVisualizer displayLinkBreaks false
par Network.visualizer.canvasVisualizer.linkBreakVisualizer nodeFilter "\"*\""
attr mutable ""
par Network.visualizer.canvasVisualizer.linkBreakVisualizer interfaceFilter "\"*\""
attr mutable ""
par Network.visualizer.canvasVisualizer.linkBreakVisualizer packetFilter "(omnetpp::cValueHolder)holder: \"*\""
attr mutable ""
par Network.visualizer.canvasVisualizer.linkBreakVisualizer icon "\"status/stop\""
par Network.visualizer.canvasVisualizer.linkBreakVisualizer iconTintAmount 0
par Network.visualizer.canvasVisualizer.linkBreakVisualizer iconTintColor "\"\""
par Network.visualizer.canvasVisualizer.linkBreakVisualizer fadeOutMode "\"realTime\""
attr enum realTime,animationTime,simulationTime
par Network.visualizer.canvasVisualizer.linkBreakVisualizer fadeOutTime 1s
attr unit s
par Network.visualizer.canvasVisualizer.linkBreakVisualizer fadeOutAnimationSpeed 0
par Network.visualizer.canvasVisualizer.linkBreakVisualizer zIndex 2
par Network.visualizer.canvasVisualizer.ieee80211Visualizer typename "\"inet.visualizer.canvas.linklayer.Ieee80211CanvasVisualizer\""
par Network.visualizer.canvasVisualizer.ieee80211Visualizer visualizationTargetModule "\"^.^.^\""
par Network.visualizer.canvasVisualizer.ieee80211Visualizer visualizationSubjectModule "\"^.^.^\""
par Network.visualizer.canvasVisualizer.ieee80211Visualizer tags "\"\""
par Network.visualizer.canvasVisualizer.ieee80211Visualizer networkNodeVisualizerModule "\"^.networkNodeVisualizer\""
par Network.visualizer.canvasVisualizer.ieee80211Visualizer displayAssociations false
par Network.visualizer.canvasVisualizer.ieee80211Visualizer nodeFilter "\"*\""
attr mutable ""
par Network.visualizer.canvasVisualizer.ieee80211Visualizer interfaceFilter "\"*\""
attr mutable ""
par Network.visualizer.canvasVisualizer.ieee80211Visualizer minPower -85dBm
attr unit dBm
par Network.visualizer.canvasVisualizer.ieee80211Visualizer maxPower -50dBm
attr unit dBm
par Network.visualizer.canvasVisualizer.ieee80211Visualizer icons "\"misc/signal_power_0 misc/signal_power_1 misc/signal_power_2 misc/signal_power_3\""
par Network.visualizer.canvasVisualizer.ieee80211Visualizer iconColor "\"dark\""
attr enum light,dark
par Network.visualizer.canvasVisualizer.ieee80211Visualizer labelFont "\"<default>\""
par Network.visualizer.canvasVisualizer.ieee80211Visualizer labelColor "\"black\""
par Network.visualizer.canvasVisualizer.ieee80211Visualizer placementHint "\"top\""
par Network.visualizer.canvasVisualizer.ieee80211Visualizer placementPriority 0
par Network.visualizer.canvasVisualizer.ieee80211Visualizer zIndex 2
par Network.visualizer.canvasVisualizer.networkRouteVisualizer typename "\"inet.visualizer.canvas.networklayer.NetworkRouteCanvasVisualizer\""
par Network.visualizer.canvasVisualizer.networkRouteVisualizer visualizationTargetModule "\"^.^.^\""
par Network.visualizer.canvasVisualizer.networkRouteVisualizer visualizationSubjectModule "\"^.^.^\""
par Network.visualizer.canvasVisualizer.networkRouteVisualizer tags "\"\""
par Network.visualizer.canvasVisualizer.networkRouteVisualizer displayRoutes false
par Network.visualizer.canvasVisualizer.networkRouteVisualizer startPathSignal "\"packetReceivedFromUpper\""
par Network.visualizer.canvasVisualizer.networkRouteVisualizer extendPathSignal "\"packetReceivedFromLower\""
par Network.visualizer.canvasVisualizer.networkRouteVisualizer endPathSignal "\"packetSentToUpper\""
par Network.visualizer.canvasVisualizer.networkRouteVisualizer nodeFilter "\"*\""
attr mutable ""
par Network.visualizer.canvasVisualizer.networkRouteVisualizer packetFilter "(omnetpp::cValueHolder)holder: \"*\""
attr mutable ""
par Network.visualizer.canvasVisualizer.networkRouteVisualizer lineColor "\"dark\""
attr enum light,dark
par Network.visualizer.canvasVisualizer.networkRouteVisualizer lineStyle "\"solid\""
par Network.visualizer.canvasVisualizer.networkRouteVisualizer lineWidth 3
par Network.visualizer.canvasVisualizer.networkRouteVisualizer lineSmooth false
par Network.visualizer.canvasVisualizer.networkRouteVisualizer lineShift 16
par Network.visualizer.canvasVisualizer.networkRouteVisualizer lineShiftMode "\"normal\""
par Network.visualizer.canvasVisualizer.networkRouteVisualizer lineContactSpacing 3
par Network.visualizer.canvasVisualizer.networkRouteVisualizer lineContactMode "\"rectangular\""
attr enum circular,rectangular
par Network.visualizer.canvasVisualizer.networkRouteVisualizer labelFormat "\"%n\""
par Network.visualizer.canvasVisualizer.networkRouteVisualizer labelFont "\"<default>, 8px\""
par Network.visualizer.canvasVisualizer.networkRouteVisualizer labelColor "\"\""
par Network.visualizer.canvasVisualizer.networkRouteVisualizer fadeOutMode "\"realTime\""
attr enum realTime,animationTime,simulationTime
par Network.visualizer.canvasVisualizer.networkRouteVisualizer fadeOutTime 1s
attr unit s
par Network.visualizer.canvasVisualizer.networkRouteVisualizer fadeOutAnimationSpeed 0
par Network.visualizer.canvasVisualizer.networkRouteVisualizer zIndex 3
par Network.visualizer.canvasVisualizer.routingTableVisualizer typename "\"inet.visualizer.canvas.networklayer.RoutingTableCanvasVisualizer\""
par Network.visualizer.canvasVisualizer.routingTableVisualizer visualizationTargetModule "\"^.^.^\""
par Network.visualizer.canvasVisualizer.routingTableVisualizer visualizationSubjectModule "\"^.^.^\""
par Network.visualizer.canvasVisualizer.routingTableVisualizer tags "\"\""
par Network.visualizer.canvasVisualizer.routingTableVisualizer displayRoutingTables false
par Network.visualizer.canvasVisualizer.routingTableVisualizer displayRoutesIndividually true
par Network.visualizer.canvasVisualizer.routingTableVisualizer displayLabels true
par Network.visualizer.canvasVisualizer.routingTableVisualizer destinationFilter "\"*\""
attr mutable ""
par Network.visualizer.canvasVisualizer.routingTableVisualizer nodeFilter "\"*\""
attr mutable ""
par Network.visualizer.canvasVisualizer.routingTableVisualizer lineColor "\"black\""
par Network.visualizer.canvasVisualizer.routingTableVisualizer lineStyle "\"solid\""
par Network.visualizer.canvasVisualizer.routingTableVisualizer lineWidth 2
par Network.visualizer.canvasVisualizer.routingTableVisualizer lineShift 16
par Network.visualizer.canvasVisualizer.routingTableVisualizer lineShiftMode "\"normal\""
par Network.visualizer.canvasVisualizer.routingTableVisualizer lineContactSpacing 3
par Network.visualizer.canvasVisualizer.routingTableVisualizer lineContactMode "\"rectangular\""
attr enum circular,rectangular
par Network.visualizer.canvasVisualizer.routingTableVisualizer labelFormat "\"%d/%m -> %g (%n)\""
attr mutable ""
par Network.visualizer.canvasVisualizer.routingTableVisualizer labelFont "\"<default>, 8px\""
par Network.visualizer.canvasVisualizer.routingTableVisualizer labelColor "\"black\""
par Network.visualizer.canvasVisualizer.routingTableVisualizer zIndex 0
par Network.visualizer.canvasVisualizer.transportRouteVisualizer typename "\"inet.visualizer.canvas.transportlayer.TransportRouteCanvasVisualizer\""
par Network.visualizer.canvasVisualizer.transportRouteVisualizer visualizationTargetModule "\"^.^.^\""
par Network.visualizer.canvasVisualizer.transportRouteVisualizer visualizationSubjectModule "\"^.^.^\""
par Network.visualizer.canvasVisualizer.transportRouteVisualizer tags "\"\""
par Network.visualizer.canvasVisualizer.transportRouteVisualizer displayRoutes false
par Network.visualizer.canvasVisualizer.transportRouteVisualizer startPathSignal "\"packetReceivedFromUpper\""
par Network.visualizer.canvasVisualizer.transportRouteVisualizer extendPathSignal "\"packetReceivedFromLower\""
par Network.visualizer.canvasVisualizer.transportRouteVisualizer endPathSignal "\"packetSentToUpper\""
par Network.visualizer.canvasVisualizer.transportRouteVisualizer nodeFilter "\"*\""
attr mutable ""
par Network.visualizer.canvasVisualizer.transportRouteVisualizer packetFilter "(omnetpp::cValueHolder)holder: \"*\""
attr mutable ""
par Network.visualizer.canvasVisualizer.transportRouteVisualizer lineColor "\"dark\""
attr enum light,dark
par Network.visualizer.canvasVisualizer.transportRouteVisualizer lineStyle "\"solid\""
par Network.visualizer.canvasVisualizer.transportRouteVisualizer lineWidth 3
par Network.visualizer.canvasVisualizer.transportRouteVisualizer lineSmooth false
par Network.visualizer.canvasVisualizer.transportRouteVisualizer lineShift 16
par Network.visualizer.canvasVisualizer.transportRouteVisualizer lineShiftMode "\"normal\""
par Network.visualizer.canvasVisualizer.transportRouteVisualizer lineContactSpacing 3
par Network.visualizer.canvasVisualizer.transportRouteVisualizer lineContactMode "\"rectangular\""
attr enum circular,rectangular
par Network.visualizer.canvasVisualizer.transportRouteVisualizer labelFormat "\"%n\""
par Network.visualizer.canvasVisualizer.transportRouteVisualizer labelFont "\"<default>, 8px\""
par Network.visualizer.canvasVisualizer.transportRouteVisualizer labelColor "\"\""
par Network.visualizer.canvasVisualizer.transportRouteVisualizer fadeOutMode "\"realTime\""
attr enum realTime,animationTime,simulationTime
par Network.visualizer.canvasVisualizer.transportRouteVisualizer fadeOutTime 1s
attr unit s
par Network.visualizer.canvasVisualizer.transportRouteVisualizer fadeOutAnimationSpeed 0
par Network.visualizer.canvasVisualizer.transportRouteVisualizer zIndex 4
par Network.visualizer.canvasVisualizer.transportConnectionVisualizer typename "\"inet.visualizer.canvas.transportlayer.TransportConnectionCanvasVisualizer\""
par Network.visualizer.canvasVisualizer.transportConnectionVisualizer visualizationTargetModule "\"^.^.^\""
par Network.visualizer.canvasVisualizer.transportConnectionVisualizer visualizationSubjectModule "\"^.^.^\""
par Network.visualizer.canvasVisualizer.transportConnectionVisualizer tags "\"\""
par Network.visualizer.canvasVisualizer.transportConnectionVisualizer networkNodeVisualizerModule "\"^.networkNodeVisualizer\""
par Network.visualizer.canvasVisualizer.transportConnectionVisualizer displayTransportConnections false
par Network.visualizer.canvasVisualizer.transportConnectionVisualizer sourceNodeFilter "\"*\""
attr mutable ""
par Network.visualizer.canvasVisualizer.transportConnectionVisualizer sourcePortFilter "\"*\""
attr mutable ""
par Network.visualizer.canvasVisualizer.transportConnectionVisualizer destinationNodeFilter "\"*\""
attr mutable ""
par Network.visualizer.canvasVisualizer.transportConnectionVisualizer destinationPortFilter "\"*\""
attr mutable ""
par Network.visualizer.canvasVisualizer.transportConnectionVisualizer icon "\"misc/marker_s\""
par Network.visualizer.canvasVisualizer.transportConnectionVisualizer iconColor "\"dark\""
attr enum light,dark
par Network.visualizer.canvasVisualizer.transportConnectionVisualizer labelFont "\"<default>\""
par Network.visualizer.canvasVisualizer.transportConnectionVisualizer labelColor "\"black\""
par Network.visualizer.canvasVisualizer.transportConnectionVisualizer placementHint "\"top\""
par Network.visualizer.canvasVisualizer.transportConnectionVisualizer placementPriority 0
par Network.visualizer.canvasVisualizer.transportConnectionVisualizer zIndex 4
par Network.visualizer.canvasVisualizer.failureProtectionConfigurationVisualizer typename "\"inet.visualizer.canvas.configurator.FailureProtectionConfigurationCanvasVisualizer\""
par Network.visualizer.canvasVisualizer.failureProtectionConfigurationVisualizer visualizationTargetModule "\"^.^.^\""
par Network.visualizer.canvasVisualizer.failureProtectionConfigurationVisualizer visualizationSubjectModule "\"^.^.^\""
par Network.visualizer.canvasVisualizer.failureProtectionConfigurationVisualizer tags "\"\""
par Network.visualizer.canvasVisualizer.failureProtectionConfigurationVisualizer displayTrees false
par Network.visualizer.canvasVisualizer.failureProtectionConfigurationVisualizer lineColor "\"dark\""
attr enum light,dark
par Network.visualizer.canvasVisualizer.failureProtectionConfigurationVisualizer lineStyle "\"solid\""
par Network.visualizer.canvasVisualizer.failureProtectionConfigurationVisualizer lineWidth 3
par Network.visualizer.canvasVisualizer.failureProtectionConfigurationVisualizer lineSmooth false
par Network.visualizer.canvasVisualizer.failureProtectionConfigurationVisualizer lineShift 16
par Network.visualizer.canvasVisualizer.failureProtectionConfigurationVisualizer lineShiftMode "\"normal\""
par Network.visualizer.canvasVisualizer.failureProtectionConfigurationVisualizer lineContactSpacing 3
par Network.visualizer.canvasVisualizer.failureProtectionConfigurationVisualizer lineContactMode "\"rectangular\""
attr enum circular,rectangular
par Network.visualizer.canvasVisualizer.failureProtectionConfigurationVisualizer failureProtectionConfiguratorModule "\"failureProtectionConfigurator\""
par Network.visualizer.canvasVisualizer.failureProtectionConfigurationVisualizer streamFilter "\"*\""
par Network.visualizer.canvasVisualizer.failureProtectionConfigurationVisualizer zIndex 3
par Network.visualizer.canvasVisualizer.streamRedundancyConfigurationVisualizer typename "\"inet.visualizer.canvas.configurator.StreamRedundancyConfigurationCanvasVisualizer\""
par Network.visualizer.canvasVisualizer.streamRedundancyConfigurationVisualizer visualizationTargetModule "\"^.^.^\""
par Network.visualizer.canvasVisualizer.streamRedundancyConfigurationVisualizer visualizationSubjectModule "\"^.^.^\""
par Network.visualizer.canvasVisualizer.streamRedundancyConfigurationVisualizer tags "\"\""
par Network.visualizer.canvasVisualizer.streamRedundancyConfigurationVisualizer displayTrees false
par Network.visualizer.canvasVisualizer.streamRedundancyConfigurationVisualizer lineColor "\"dark\""
attr enum light,dark
par Network.visualizer.canvasVisualizer.streamRedundancyConfigurationVisualizer lineStyle "\"solid\""
par Network.visualizer.canvasVisualizer.streamRedundancyConfigurationVisualizer lineWidth 3
par Network.visualizer.canvasVisualizer.streamRedundancyConfigurationVisualizer lineSmooth false
par Network.visualizer.canvasVisualizer.streamRedundancyConfigurationVisualizer lineShift 16
par Network.visualizer.canvasVisualizer.streamRedundancyConfigurationVisualizer lineShiftMode "\"normal\""
par Network.visualizer.canvasVisualizer.streamRedundancyConfigurationVisualizer lineContactSpacing 3
par Network.visualizer.canvasVisualizer.streamRedundancyConfigurationVisualizer lineContactMode "\"rectangular\""
attr enum circular,rectangular
par Network.visualizer.canvasVisualizer.streamRedundancyConfigurationVisualizer streamRedundancyConfiguratorModule "\"streamRedundancyConfigurator\""
par Network.visualizer.canvasVisualizer.streamRedundancyConfigurationVisualizer streamFilter "\"*\""
par Network.visualizer.canvasVisualizer.streamRedundancyConfigurationVisualizer zIndex 3
par Network.visualizer.canvasVisualizer typename "\"inet.visualizer.canvas.integrated.IntegratedCanvasVisualizer\""
par Network.visualizer typename "\"inet.visualizer.common.IntegratedVisualizer\""
par Network.physicalEnvironment typename "\"inet.environment.common.PhysicalEnvironment\""
par Network.physicalEnvironment coordinateSystemModule "\"\""
par Network.physicalEnvironment temperature 293K
attr unit K
par Network.physicalEnvironment spaceMinX "nan m"
attr unit m
par Network.physicalEnvironment spaceMinY "nan m"
attr unit m
par Network.physicalEnvironment spaceMinZ "nan m"
attr unit m
par Network.physicalEnvironment spaceMaxX "nan m"
attr unit m
par Network.physicalEnvironment spaceMaxY "nan m"
attr unit m
par Network.physicalEnvironment spaceMaxZ "nan m"
attr unit m
par Network.physicalEnvironment config "<environment>...</environment> at /home/henokg/Downloads/Masters/OmnetArdusim/simulations//Val_Ob.xml:1"
par Network.host[0].radioIn[0].channel typename "\"ned.IdealChannel\""
par Network.host[0].mobility typename "\"inet.mobility.single.LinearMobility\""
par Network.host[0].mobility subjectModule "\"^\""
par Network.host[0].mobility coordinateSystemModule "\"\""
par Network.host[0].mobility displayStringTextFormat "\"p: %p\\nv: %v\""
attr mutable ""
par Network.host[0].mobility updateDisplayString true
par Network.host[0].mobility constraintAreaMinX "-inf m"
attr unit m
par Network.host[0].mobility constraintAreaMinY "-inf m"
attr unit m
par Network.host[0].mobility constraintAreaMinZ "-inf m"
attr unit m
par Network.host[0].mobility constraintAreaMaxX "inf m"
attr unit m
par Network.host[0].mobility constraintAreaMaxY "inf m"
attr unit m
par Network.host[0].mobility constraintAreaMaxZ "inf m"
attr unit m
par Network.host[0].mobility updateInterval 0.1s
attr unit s
par Network.host[0].mobility faceForward true
par Network.host[0].mobility initialX 0m
attr unit m
par Network.host[0].mobility initialY 0m
attr unit m
par Network.host[0].mobility initialZ 0m
attr unit m
par Network.host[0].mobility initFromDisplayString false
par Network.host[0].mobility speed 0mps
attr unit mps
par Network.host[0].mobility initialMovementHeading 213.424deg
attr unit deg
par Network.host[0].mobility initialMovementElevation 0deg
attr unit deg
par Network.host[0].interfaceTable typename "\"inet.networklayer.common.InterfaceTable\""
par Network.host[0].interfaceTable displayAddresses false
par Network.host[0].cb typename "\"inet.common.MessageDispatcher\""
par Network.host[0].cb displayStringTextFormat "\"processed %p pk (%l)\""
par Network.host[0].cb forwardServiceRegistration true
par Network.host[0].cb forwardProtocolRegistration true
par Network.host[0].bl typename "\"inet.common.MessageDispatcher\""
par Network.host[0].bl displayStringTextFormat "\"processed %p pk (%l)\""
par Network.host[0].bl forwardServiceRegistration true
par Network.host[0].bl forwardProtocolRegistration true
par Network.host[0].li typename "\"inet.common.MessageDispatcher\""
par Network.host[0].li displayStringTextFormat "\"processed %p pk (%l)\""
par Network.host[0].li forwardServiceRegistration true
par Network.host[0].li forwardProtocolRegistration true
par Network.host[0].lo[0].upperLayerIn.channel typename "\"ned.IdealChannel\""
par Network.host[0].lo[0].lo.upperLayerOut.channel typename "\"ned.IdealChannel\""
par Network.host[0].lo[0].lo typename "\"inet.linklayer.loopback.Loopback\""
par Network.host[0].lo[0].lo interfaceTableModule "\"Network.host[0].interfaceTable\""
par Network.host[0].lo[0].lo mtu 4470B
attr unit B
scalar Network.host[0].lo[0].lo rcvdPkFromHl:count 1407
attr interpolationmode none
attr recordingmode count
attr source packetReceivedFromUpper
attr title "packets received from higher layer, count"
scalar Network.host[0].lo[0].lo rcvdPkFromHl:sum(packetBytes) 1446396
attr interpolationmode none
attr recordingmode sum(packetBytes)
attr source packetReceivedFromUpper
attr title "packets received from higher layer, sum(packetBytes)"
scalar Network.host[0].lo[0].lo passedUpPk:count 1407
attr interpolationmode none
attr recordingmode count
attr source packetSentToUpper
attr title "packets passed to higher layer, count"
scalar Network.host[0].lo[0].lo passedUpPk:sum(packetBytes) 1446396
attr interpolationmode none
attr recordingmode sum(packetBytes)
attr source packetSentToUpper
attr title "packets passed to higher layer, sum(packetBytes)"
par Network.host[0].lo[0] typename "\"inet.linklayer.loopback.LoopbackInterface\""
par Network.host[0].lo[0] displayStringTextFormat "\"%a (%i)\\n%m\""
par Network.host[0].lo[0] recordPcap false
par Network.host[0].lo[0] numPcapRecorders 0
par Network.host[0].lo[0] interfaceTableModule "\"Network.host[0].interfaceTable\""
scalar Network.host[0].lo[0] packetDropInterfaceDown:count 0
attr interpolationmode none
attr recordingmode count
attr source packetDropReasonIsInterfaceDown(packetDropped)
attr title "packet drops: interface down, count"
scalar Network.host[0].lo[0] packetDropInterfaceDown:sum(packetBytes) 0
attr interpolationmode none
attr recordingmode sum(packetBytes)
attr source packetDropReasonIsInterfaceDown(packetDropped)
attr title "packet drops: interface down, sum(packetBytes)"
scalar Network.host[0].lo[0] packetDropNoCarrier:count 0
attr interpolationmode none
attr recordingmode count
attr source packetDropReasonIsNoCarrier(packetDropped)
attr title "packet drops: no carrier, count"
scalar Network.host[0].lo[0] packetDropNoCarrier:sum(packetBytes) 0
attr interpolationmode none
attr recordingmode sum(packetBytes)
attr source packetDropReasonIsNoCarrier(packetDropped)
attr title "packet drops: no carrier, sum(packetBytes)"
par Network.host[0].wlan[0].radioIn.channel typename "\"ned.IdealChannel\""
par Network.host[0].wlan[0].llc.upperLayerOut.channel typename "\"ned.IdealChannel\""
par Network.host[0].wlan[0].upperLayerIn.channel typename "\"ned.IdealChannel\""
par Network.host[0].wlan[0].mib typename "\"inet.linklayer.ieee80211.mib.Ieee80211Mib\""
par Network.host[0].wlan[0].llc typename "\"inet.linklayer.ieee80211.llc.Ieee80211LlcEpd\""
par Network.host[0].wlan[0].mgmt typename "\"inet.linklayer.ieee80211.mgmt.Ieee80211MgmtAdhoc\""
par Network.host[0].wlan[0].mgmt mibModule "\"Network.host[0].wlan[0].mib\""
par Network.host[0].wlan[0].mgmt macModule "\"Network.host[0].wlan[0].mac\""
par Network.host[0].wlan[0].mgmt interfaceTableModule "\"Network.host[0].interfaceTable\""
par Network.host[0].wlan[0].mac.dcf.channelAccess.pendingQueue typename "\"inet.linklayer.ieee80211.mac.queue.PendingQueue\""
par Network.host[0].wlan[0].mac.dcf.channelAccess.pendingQueue displayStringTextFormat "\"contains %p pk (%l) pushed %u\\npulled %o removed %r dropped %d\""
par Network.host[0].wlan[0].mac.dcf.channelAccess.pendingQueue packetCapacity 100
par Network.host[0].wlan[0].mac.dcf.channelAccess.pendingQueue dataCapacity -1b
attr unit b
par Network.host[0].wlan[0].mac.dcf.channelAccess.pendingQueue dropperClass "\"inet::queueing::PacketAtCollectionEndDropper\""
par Network.host[0].wlan[0].mac.dcf.channelAccess.pendingQueue comparatorClass "\"inet::ieee80211::MgmtOverDataComparator\""
par Network.host[0].wlan[0].mac.dcf.channelAccess.pendingQueue bufferModule "\"\""
scalar Network.host[0].wlan[0].mac.dcf.channelAccess.pendingQueue queueLength:last 0
attr autoWarmupFilter false
attr interpolationmode sample-hold
attr recordingmode last
attr source "warmup(atomic(constant0(packetPushEnded) + count(packetPushStarted) - count(packetPulled) - count(packetRemoved) - count(packetDropped)))"
attr title "queue length, last"
attr unit pk
scalar Network.host[0].wlan[0].mac.dcf.channelAccess.pendingQueue queueLength:max 1
attr autoWarmupFilter false
attr interpolationmode sample-hold
attr recordingmode max
attr source "warmup(atomic(constant0(packetPushEnded) + count(packetPushStarted) - count(packetPulled) - count(packetRemoved) - count(packetDropped)))"
attr title "queue length, max"
attr unit pk
scalar Network.host[0].wlan[0].mac.dcf.channelAccess.pendingQueue queueLength:timeavg 0
attr autoWarmupFilter false
attr interpolationmode sample-hold
attr recordingmode timeavg
attr source "warmup(atomic(constant0(packetPushEnded) + count(packetPushStarted) - count(packetPulled) - count(packetRemoved) - count(packetDropped)))"
attr title "queue length, timeavg"
attr unit pk
scalar Network.host[0].wlan[0].mac.dcf.channelAccess.pendingQueue queueBitLength:last 0
attr autoWarmupFilter false
attr interpolationmode sample-hold
attr recordingmode last
attr source "warmup(atomic(constant0(packetPushEnded) + sum(packetLength(packetPushStarted)) - sum(packetLength(packetPulled)) - sum(packetLength(packetRemoved)) - sum(packetLength(packetDropped))))"
attr title "queue bit length, last"
attr unit b
scalar Network.host[0].wlan[0].mac.dcf.channelAccess.pendingQueue queueBitLength:max 8464
attr autoWarmupFilter false
attr interpolationmode sample-hold
attr recordingmode max
attr source "warmup(atomic(constant0(packetPushEnded) + sum(packetLength(packetPushStarted)) - sum(packetLength(packetPulled)) - sum(packetLength(packetRemoved)) - sum(packetLength(packetDropped))))"
attr title "queue bit length, max"
attr unit b
scalar Network.host[0].wlan[0].mac.dcf.channelAccess.pendingQueue queueBitLength:timeavg 0
attr autoWarmupFilter false
attr interpolationmode sample-hold
attr recordingmode timeavg
attr source "warmup(atomic(constant0(packetPushEnded) + sum(packetLength(packetPushStarted)) - sum(packetLength(packetPulled)) - sum(packetLength(packetRemoved)) - sum(packetLength(packetDropped))))"
attr title "queue bit length, timeavg"
attr unit b
statistic Network.host[0].wlan[0].mac.dcf.channelAccess.pendingQueue queueingTime:histogram
field count 1407
field mean 0
field stddev 0
field min 0
field max 0
field sum 0
field sqrsum 0
attr interpolationmode none
attr recordingmode histogram
attr source queueingTime(packetPulled)
attr title "queueing times"
attr unit s
bin	-inf	0
bin	-0.5	0
bin	-0.48	0
bin	-0.46	0
bin	-0.44	0
bin	-0.42	0
bin	-0.4	0
bin	-0.38	0
bin	-0.36	0
bin	-0.34	0
bin	-0.32	0
bin	-0.3	0
bin	-0.28	0
bin	-0.26	0
bin	-0.24	0
bin	-0.22	0
bin	-0.2	0
bin	-0.18	0
bin	-0.16	0
bin	-0.14	0
bin	-0.12	0
bin	-0.1	0
bin	-0.08	0
bin	-0.06	0
bin	-0.04	0
bin	-0.02	0
bin	0	1407
bin	0.02	0
bin	0.04	0
bin	0.06	0
bin	0.08	0
bin	0.1	0
bin	0.12	0
bin	0.14	0
bin	0.16	0
bin	0.18	0
bin	0.2	0
bin	0.22	0
bin	0.24	0
bin	0.26	0
bin	0.28	0
bin	0.3	0
bin	0.32	0
bin	0.34	0
bin	0.36	0
bin	0.38	0
bin	0.4	0
bin	0.42	0
bin	0.44	0
bin	0.46	0
bin	0.48	0
bin	0.5	0
scalar Network.host[0].wlan[0].mac.dcf.channelAccess.pendingQueue outgoingPackets:count 1407
attr recordingmode count
attr source packetPulled
attr title "outgoing packets, count"
attr unit pk
scalar Network.host[0].wlan[0].mac.dcf.channelAccess.pendingQueue outgoingPacketLengths:sum 11908848
attr interpolationmode none
attr recordingmode sum
attr source packetLength(packetPulled)
attr title "outgoing packet lengths, sum"
attr unit b
statistic Network.host[0].wlan[0].mac.dcf.channelAccess.pendingQueue outgoingPacketLengths:histogram
field count 1407
field mean 8464
field stddev 0
field min 8464
field max 8464
field sum 11908848
field sqrsum 100796489472
attr interpolationmode none
attr recordingmode histogram
attr source packetLength(packetPulled)
attr title "outgoing packet lengths"
attr unit b
bin	-inf	0
bin	8463	0
bin	8464	1407
bin	8465	0
statistic Network.host[0].wlan[0].mac.dcf.channelAccess.pendingQueue flowQueueingTime:histogram
field count 0
field mean -nan
field stddev nan
field min nan
field max nan
field sum 0
field sqrsum 0
attr interpolationmode none
attr recordingmode histogram
attr source queueingTime(demuxFlow(packetPulled))
attr title "flow queueing times"
attr unit s
bin	-inf	0
bin	0	0
bin	1	0
scalar Network.host[0].wlan[0].mac.dcf.channelAccess.pendingQueue incomingPackets:count 1407
attr recordingmode count
attr source packetPushStarted
attr title "incoming packets, count"
attr unit pk
scalar Network.host[0].wlan[0].mac.dcf.channelAccess.pendingQueue incomingPacketLengths:sum 11908848
attr interpolationmode none
attr recordingmode sum
attr source packetLength(packetPushStarted)
attr title "incoming packet lengths, sum"
attr unit b
statistic Network.host[0].wlan[0].mac.dcf.channelAccess.pendingQueue incomingPacketLengths:histogram
field count 1407
field mean 8464
field stddev 0
field min 8464
field max 8464
field sum 11908848
field sqrsum 100796489472
attr interpolationmode none
attr recordingmode histogram
attr source packetLength(packetPushStarted)
attr title "incoming packet lengths"
attr unit b
bin	-inf	0
bin	8463	0
bin	8464	1407
bin	8465	0
scalar Network.host[0].wlan[0].mac.dcf.channelAccess.pendingQueue droppedPacketsQueueOverflow:count 0
attr interpolationmode none
attr recordingmode count
attr source packetDropReasonIsQueueOverflow(packetDropped)
attr title "dropped packets: queue overflow, count"
attr unit pk
scalar Network.host[0].wlan[0].mac.dcf.channelAccess.pendingQueue droppedPacketLengthsQueueOverflow:sum 0
attr interpolationmode none
attr recordingmode sum
attr source packetLength(packetDropReasonIsQueueOverflow(packetDropped))
attr title "dropped packet lengths: queue overflow, sum"
attr unit b
par Network.host[0].wlan[0].mac.dcf.channelAccess.inProgressFrames typename "\"inet.linklayer.ieee80211.mac.queue.InProgressFrames\""
par Network.host[0].wlan[0].mac.dcf.channelAccess.inProgressFrames pendingQueueModule "\"^.pendingQueue\""
par Network.host[0].wlan[0].mac.dcf.channelAccess.inProgressFrames originatorMacDataServiceModule "\"^.^.originatorMacDataService\""
par Network.host[0].wlan[0].mac.dcf.channelAccess.inProgressFrames ackHandlerModule "\"^.^.ackHandler\""
statistic Network.host[0].wlan[0].mac.dcf.channelAccess.inProgressFrames queueingTime:histogram
field count 1407
field mean 0.00075199999999999
field stddev 0
field min 0.000752
field max 0.000752
field sum 1.058064
field sqrsum 0.00079566412800003
attr interpolationmode none
attr recordingmode histogram
attr source queueingTime(packetDequeued)
attr title "queueing times"
bin	-inf	0
bin	0	1407
bin	0.01	0
bin	0.02	0
bin	0.03	0
bin	0.04	0
bin	0.05	0
bin	0.06	0
bin	0.07	0
bin	0.08	0
bin	0.09	0
bin	0.1	0
bin	0.11	0
bin	0.12	0
bin	0.13	0
bin	0.14	0
bin	0.15	0
bin	0.16	0
bin	0.17	0
bin	0.18	0
bin	0.19	0
bin	0.2	0
bin	0.21	0
bin	0.22	0
bin	0.23	0
bin	0.24	0
bin	0.25	0
bin	0.26	0
bin	0.27	0
bin	0.28	0
bin	0.29	0
bin	0.3	0
bin	0.31	0
bin	0.32	0
bin	0.33	0
bin	0.34	0
bin	0.35	0
bin	0.36	0
bin	0.37	0
bin	0.38	0
bin	0.39	0
bin	0.4	0
bin	0.41	0
bin	0.42	0
bin	0.43	0
bin	0.44	0
bin	0.45	0
bin	0.46	0
bin	0.47	0
bin	0.48	0
bin	0.49	0
bin	0.5	0
bin	0.51	0
scalar Network.host[0].wlan[0].mac.dcf.channelAccess.inProgressFrames queueLength:max 1
attr autoWarmupFilter false
attr interpolationmode sample-hold
attr recordingmode max
attr source "warmup(count(packetEnqueued) - count(packetDequeued))"
attr title "queue length, max"
scalar Network.host[0].wlan[0].mac.dcf.channelAccess.inProgressFrames queueLength:timeavg 0.0018968179129094
attr autoWarmupFilter false
attr interpolationmode sample-hold
attr recordingmode timeavg
attr source "warmup(count(packetEnqueued) - count(packetDequeued))"
attr title "queue length, timeavg"
par Network.host[0].wlan[0].mac.dcf.channelAccess.contention typename "\"inet.linklayer.ieee80211.mac.contention.Contention\""
par Network.host[0].wlan[0].mac.dcf.channelAccess.contention initialChannelBusy true
par Network.host[0].wlan[0].mac.dcf.channelAccess.contention backoffOptimization true
scalar Network.host[0].wlan[0].mac.dcf.channelAccess.contention channelAccessGranted:count 1407
attr recordingmode count
attr title "channel access granted, count"
scalar Network.host[0].wlan[0].mac.dcf.channelAccess.contention stateChanged:count 11258
attr enum IDLE,DEFER,IFS_AND_BACKOFF
attr interpolationmode none
attr recordingmode count
attr title "contention state changed, count"
attr type enum
par Network.host[0].wlan[0].mac.dcf.channelAccess typename "\"inet.linklayer.ieee80211.mac.channelaccess.Dcaf\""
par Network.host[0].wlan[0].mac.dcf.channelAccess difsn -1
par Network.host[0].wlan[0].mac.dcf.channelAccess cwMin -1
par Network.host[0].wlan[0].mac.dcf.channelAccess cwMax -1
par Network.host[0].wlan[0].mac.dcf.channelAccess rxModule "\"^.^.rx\""
scalar Network.host[0].wlan[0].mac.dcf.channelAccess channelOwnershipChanged:count 2814
attr interpolationmode sample-hold
attr recordingmode count
attr title "channel ownership, count"
par Network.host[0].wlan[0].mac.dcf.originatorMacDataService.fragmentationPolicy typename "\"inet.linklayer.ieee80211.mac.fragmentation.BasicFragmentationPolicy\""
par Network.host[0].wlan[0].mac.dcf.originatorMacDataService.fragmentationPolicy fragmentationThreshold 1500B
attr unit B
par Network.host[0].wlan[0].mac.dcf.originatorMacDataService typename "\"inet.linklayer.ieee80211.mac.originator.OriginatorMacDataService\""
scalar Network.host[0].wlan[0].mac.dcf.originatorMacDataService packetAggregated:count 0
attr recordingmode count
attr title "packets aggregated, count"
scalar Network.host[0].wlan[0].mac.dcf.originatorMacDataService packetFragmented:count 0
attr recordingmode count
attr title "packets fragmented, count"
par Network.host[0].wlan[0].mac.dcf.recipientMacDataService typename "\"inet.linklayer.ieee80211.mac.recipient.RecipientMacDataService\""
scalar Network.host[0].wlan[0].mac.dcf.recipientMacDataService packetDeaggregated:count 0
attr recordingmode count
attr title "packets deaggregated, count"
scalar Network.host[0].wlan[0].mac.dcf.recipientMacDataService packetDefragmented:count 0
attr recordingmode count
attr title "packets defragmented, count"
scalar Network.host[0].wlan[0].mac.dcf.recipientMacDataService packetDropDuplicateDetected:count 0
attr interpolationmode none
attr recordingmode count
attr source packetDropReasonIsDuplicateDetected(packetDropped)
attr title "packet drops: duplicate detected, count"
scalar Network.host[0].wlan[0].mac.dcf.recipientMacDataService packetDropDuplicateDetected:sum(packetBytes) 0
attr interpolationmode none
attr recordingmode sum(packetBytes)
attr source packetDropReasonIsDuplicateDetected(packetDropped)
attr title "packet drops: duplicate detected, sum(packetBytes)"
par Network.host[0].wlan[0].mac.dcf.rateSelection typename "\"inet.linklayer.ieee80211.mac.rateselection.RateSelection\""
par Network.host[0].wlan[0].mac.dcf.rateSelection rateControlModule "\"^.rateControl\""
par Network.host[0].wlan[0].mac.dcf.rateSelection multicastFrameBitrate -1bps
attr unit bps
par Network.host[0].wlan[0].mac.dcf.rateSelection responseAckFrameBitrate -1bps
attr unit bps
par Network.host[0].wlan[0].mac.dcf.rateSelection responseCtsFrameBitrate -1bps
attr unit bps
par Network.host[0].wlan[0].mac.dcf.rateSelection dataFrameBitrate -1bps
attr unit bps
par Network.host[0].wlan[0].mac.dcf.rateSelection dataFrameBandwidth "nan Hz"
attr unit Hz
par Network.host[0].wlan[0].mac.dcf.rateSelection dataFrameNumSpatialStreams -1
par Network.host[0].wlan[0].mac.dcf.rateSelection mgmtFrameBitrate -1bps
attr unit bps
par Network.host[0].wlan[0].mac.dcf.rateSelection controlFrameBitrate -1bps
attr unit bps
par Network.host[0].wlan[0].mac.dcf.recoveryProcedure typename "\"inet.linklayer.ieee80211.mac.originator.NonQosRecoveryProcedure\""
[...]
attr enum "2.4 GHz,5 GHz,5 GHz (20 MHz),5 GHz (40 MHz),5 GHz (80 MHz),5 GHz (160 MHz),5.9 GHz"
par Network.host[1].wlan[0].radio channelNumber 0
par Network.host[1].wlan[0].radio crcMode "\"declared\""
attr enum declared,computed
statistic Network.host[1].wlan[0].radio radioChannel:histogram
field count 1
field mean 0
field stddev nan
field min 0
field max 0
field sum 0
field sqrsum 0
attr interpolationmode sample-hold
attr recordingmode histogram
attr source radioChannelChanged
attr title "Radio channel"
bin	-inf	0
bin	-0.5	0
bin	-0.48	0
bin	-0.46	0
bin	-0.44	0
bin	-0.42	0
bin	-0.4	0
bin	-0.38	0
bin	-0.36	0
bin	-0.34	0
bin	-0.32	0
bin	-0.3	0
bin	-0.28	0
bin	-0.26	0
bin	-0.24	0
bin	-0.22	0
bin	-0.2	0
bin	-0.18	0
bin	-0.16	0
bin	-0.14	0
bin	-0.12	0
bin	-0.1	0
bin	-0.08	0
bin	-0.06	0
bin	-0.04	0
bin	-0.02	0
bin	0	1
bin	0.02	0
bin	0.04	0
bin	0.06	0
bin	0.08	0
bin	0.1	0
bin	0.12	0
bin	0.14	0
bin	0.16	0
bin	0.18	0
bin	0.2	0
bin	0.22	0
bin	0.24	0
bin	0.26	0
bin	0.28	0
bin	0.3	0
bin	0.32	0
bin	0.34	0
bin	0.36	0
bin	0.38	0
bin	0.4	0
bin	0.42	0
bin	0.44	0
bin	0.46	0
bin	0.48	0
bin	0.5	0
scalar Network.host[1].wlan[0].radio radioMode:count 3
attr interpolationmode sample-hold
attr recordingmode count
attr source radioModeChanged
attr title "Radio mode, count"
scalar Network.host[1].wlan[0].radio receptionState:count 1451
attr interpolationmode sample-hold
attr recordingmode count
attr source receptionStateChanged
attr title "Radio reception state, count"
scalar Network.host[1].wlan[0].radio transmissionState:count 0
attr interpolationmode sample-hold
attr recordingmode count
attr source transmissionStateChanged
attr title "Radio transmission state, count"
statistic Network.host[1].wlan[0].radio minSnir:histogram
field count 717
field mean 29.222276794216
field stddev 3.845562336261
field min 6.4243557291766
field max 29.992047225541
field sum 20952.372461453
field sqrsum 622864.48593644
attr recordingmode histogram
attr source minimumSnir(packetSentToUpper)
attr title "Min SNIR"
bin	-inf	0
bin	0.5	0
bin	1	0
bin	1.5	0
bin	2	0
bin	2.5	0
bin	3	0
bin	3.5	0
bin	4	0
bin	4.5	0
bin	5	0
bin	5.5	0
bin	6	5
bin	6.5	0
bin	7	0
bin	7.5	0
bin	8	0
bin	8.5	4
bin	9	14
bin	9.5	0
bin	10	0
bin	10.5	0
bin	11	0
bin	11.5	1
bin	12	0
bin	12.5	0
bin	13	0
bin	13.5	0
bin	14	0
bin	14.5	0
bin	15	0
bin	15.5	0
bin	16	0
bin	16.5	0
bin	17	0
bin	17.5	0
bin	18	0
bin	18.5	0
bin	19	0
bin	19.5	0
bin	20	0
bin	20.5	0
bin	21	0
bin	21.5	0
bin	22	0
bin	22.5	0
bin	23	0
bin	23.5	0
bin	24	0
bin	24.5	0
bin	25	0
bin	25.5	0
bin	26	0
bin	26.5	0
bin	27	0
bin	27.5	0
bin	28	0
bin	28.5	0
bin	29	0
bin	29.5	693
bin	30	0
bin	30.5	0
bin	31	0
bin	31.5	0
bin	32	0
bin	32.5	0
bin	33	0
bin	33.5	0
bin	34	0
bin	34.5	0
bin	35	0
bin	35.5	0
bin	36	0
statistic Network.host[1].wlan[0].radio packetErrorRate:histogram
field count 717
field mean 0.034256229945852
field stddev 0.17984732762552
field min 0.00078433340689166
field max 1
field sum 24.561716871176
field sqrsum 24.000455678899
attr recordingmode histogram
attr source packetErrorRate(packetSentToUpper)
attr title "Packet error rate"
bin	-inf	0
bin	0	693
bin	0.02	0
bin	0.04	0
bin	0.06	0
bin	0.08	0
bin	0.1	0
bin	0.12	0
bin	0.14	0
bin	0.16	0
bin	0.18	0
bin	0.2	0
bin	0.22	0
bin	0.24	0
bin	0.26	0
bin	0.28	0
bin	0.3	0
bin	0.32	0
bin	0.34	0
bin	0.36	0
bin	0.38	0
bin	0.4	0
bin	0.42	0
bin	0.44	0
bin	0.46	0
bin	0.48	0
bin	0.5	0
bin	0.52	0
bin	0.54	0
bin	0.56	0
bin	0.58	0
bin	0.6	0
bin	0.62	0
bin	0.64	0
bin	0.66	0
bin	0.68	0
bin	0.7	0
bin	0.72	0
bin	0.74	0
bin	0.76	0
bin	0.78	0
bin	0.8	0
bin	0.82	0
bin	0.84	0
bin	0.86	0
bin	0.88	0
bin	0.9	0
bin	0.92	0
bin	0.94	0
bin	0.96	0
bin	0.98	0
bin	1	24
bin	1.02	0
bin	1.04	0
bin	1.06	0
bin	1.08	0
bin	1.1	0
bin	1.12	0
bin	1.14	0
bin	1.16	0
bin	1.18	0
bin	1.2	0
bin	1.22	0
bin	1.24	0
bin	1.26	0
statistic Network.host[1].wlan[0].radio bitErrorRate:histogram
field count 0
field mean -nan
field stddev nan
field min nan
field max nan
field sum 0
field sqrsum 0
attr recordingmode histogram
attr source bitErrorRate(packetSentToUpper)
attr title "Bit error rate"
bin	-inf	0
bin	0	0
bin	1	0
statistic Network.host[1].wlan[0].radio symbolErrorRate:histogram
field count 0
field mean -nan
field stddev nan
field min nan
field max nan
field sum 0
field sqrsum 0
attr recordingmode histogram
attr source symbolErrorRate(packetSentToUpper)
attr title "Symbol error rate"
bin	-inf	0
bin	0	0
bin	1	0
par Network.host[1].wlan[0] typename "\"inet.linklayer.ieee80211.Ieee80211Interface\""
par Network.host[1].wlan[0] displayStringTextFormat "\"%a (%i)\\n%m\""
par Network.host[1].wlan[0] recordPcap false
par Network.host[1].wlan[0] numPcapRecorders 0
par Network.host[1].wlan[0] interfaceTableModule "\"Network.host[1].interfaceTable\""
par Network.host[1].wlan[0] energySourceModule "\"\""
par Network.host[1].wlan[0] opMode "\"p\""
attr enum a,b,g(erp),g(mixed),n(mixed-2.4Ghz),p,ac
par Network.host[1].wlan[0] address "\"0A-AA-00-00-00-02\""
attr mutable ""
par Network.host[1].wlan[0] protocol "\"\""
par Network.host[1].wlan[0] bitrate -1bps
attr unit bps
scalar Network.host[1].wlan[0] packetDropInterfaceDown:count 0
attr interpolationmode none
attr recordingmode count
attr source packetDropReasonIsInterfaceDown(packetDropped)
attr title "packet drops: interface down, count"
scalar Network.host[1].wlan[0] packetDropInterfaceDown:sum(packetBytes) 0
attr interpolationmode none
attr recordingmode sum(packetBytes)
attr source packetDropReasonIsInterfaceDown(packetDropped)
attr title "packet drops: interface down, sum(packetBytes)"
scalar Network.host[1].wlan[0] packetDropNoCarrier:count 0
attr interpolationmode none
attr recordingmode count
attr source packetDropReasonIsNoCarrier(packetDropped)
attr title "packet drops: no carrier, count"
scalar Network.host[1].wlan[0] packetDropNoCarrier:sum(packetBytes) 0
attr interpolationmode none
attr recordingmode sum(packetBytes)
attr source packetDropReasonIsNoCarrier(packetDropped)
attr title "packet drops: no carrier, sum(packetBytes)"
par Network.host[1].ipv4.transportIn.channel typename "\"ned.IdealChannel\""
par Network.host[1].ipv4.up.out[0].channel typename "\"ned.IdealChannel\""
par Network.host[1].ipv4.lp.out[2].channel typename "\"ned.IdealChannel\""
par Network.host[1].ipv4.ifIn.channel typename "\"ned.IdealChannel\""
par Network.host[1].ipv4.configurator typename "\"inet.networklayer.configurator.ipv4.Ipv4NodeConfigurator\""
par Network.host[1].ipv4.configurator interfaceTableModule "\"Network.host[1].interfaceTable\""
par Network.host[1].ipv4.configurator routingTableModule "\"Network.host[1].ipv4.routingTable\""
par Network.host[1].ipv4.configurator networkConfiguratorModule "\"configurator\""
par Network.host[1].ipv4.configurator configureRoutingTable true
par Network.host[1].ipv4.routingTable typename "\"inet.networklayer.ipv4.Ipv4RoutingTable\""
par Network.host[1].ipv4.routingTable interfaceTableModule "\"Network.host[1].interfaceTable\""
par Network.host[1].ipv4.routingTable routerId "\"auto\""
par Network.host[1].ipv4.routingTable netmaskRoutes "\"*\""
par Network.host[1].ipv4.routingTable forwarding true
par Network.host[1].ipv4.routingTable multicastForwarding false
par Network.host[1].ipv4.routingTable useAdminDist false
par Network.host[1].ipv4.routingTable routingFile "\"\""
par Network.host[1].ipv4.natTable typename "\"inet.networklayer.ipv4.Ipv4NatTable\""
par Network.host[1].ipv4.natTable networkProtocolModule "\"^.ip\""
par Network.host[1].ipv4.natTable config "<config/> at content:1"
par Network.host[1].ipv4.up typename "\"inet.common.MessageDispatcher\""
par Network.host[1].ipv4.up displayStringTextFormat "\"processed %p pk (%l)\""
par Network.host[1].ipv4.up forwardServiceRegistration true
par Network.host[1].ipv4.up forwardProtocolRegistration true
par Network.host[1].ipv4.igmp typename "\"inet.networklayer.ipv4.Igmpv2\""
par Network.host[1].ipv4.igmp interfaceTableModule "\"Network.host[1].interfaceTable\""
par Network.host[1].ipv4.igmp routingTableModule "\"Network.host[1].ipv4.routingTable\""
par Network.host[1].ipv4.igmp crcMode "\"declared\""
attr enum declared,computed
par Network.host[1].ipv4.igmp enabled true
par Network.host[1].ipv4.igmp robustnessVariable 2
par Network.host[1].ipv4.igmp queryInterval 125s
attr unit s
par Network.host[1].ipv4.igmp queryResponseInterval 10s
attr unit s
par Network.host[1].ipv4.igmp groupMembershipInterval 260s
attr unit s
par Network.host[1].ipv4.igmp otherQuerierPresentInterval 255s
attr unit s
par Network.host[1].ipv4.igmp startupQueryInterval 31.25s
attr unit s
par Network.host[1].ipv4.igmp startupQueryCount 2
par Network.host[1].ipv4.igmp lastMemberQueryInterval 1s
attr unit s
par Network.host[1].ipv4.igmp lastMemberQueryCount 2
par Network.host[1].ipv4.igmp unsolicitedReportInterval 10s
attr unit s
par Network.host[1].ipv4.icmp typename "\"inet.networklayer.ipv4.Icmp\""
par Network.host[1].ipv4.icmp interfaceTableModule "\"Network.host[1].interfaceTable\""
par Network.host[1].ipv4.icmp routingTableModule "\"Network.host[1].ipv4.routingTable\""
par Network.host[1].ipv4.icmp crcMode "\"declared\""
attr enum declared,computed
attr mutable ""
par Network.host[1].ipv4.icmp quoteLength 8B
attr mutable ""
attr unit B
par Network.host[1].ipv4.mp typename "\"inet.common.MessageDispatcher\""
par Network.host[1].ipv4.mp displayStringTextFormat "\"processed %p pk (%l)\""
par Network.host[1].ipv4.mp forwardServiceRegistration true
par Network.host[1].ipv4.mp forwardProtocolRegistration true
par Network.host[1].ipv4.ip typename "\"inet.networklayer.ipv4.Ipv4\""
par Network.host[1].ipv4.ip interfaceTableModule "\"Network.host[1].interfaceTable\""
par Network.host[1].ipv4.ip routingTableModule "\"Network.host[1].ipv4.routingTable\""
par Network.host[1].ipv4.ip arpModule "\"Network.host[1].ipv4.arp\""
par Network.host[1].ipv4.ip icmpModule "\"Network.host[1].ipv4.icmp\""
par Network.host[1].ipv4.ip crcMode "\"declared\""
attr enum declared,computed
par Network.host[1].ipv4.ip timeToLive 32
par Network.host[1].ipv4.ip multicastTimeToLive 32
par Network.host[1].ipv4.ip fragmentTimeout 60s
attr unit s
par Network.host[1].ipv4.ip limitedBroadcast false
par Network.host[1].ipv4.ip directBroadcastInterfaces "\"\""
scalar Network.host[1].ipv4.ip packetDropAddressResolutionFailed:count 0
attr interpolationmode none
attr recordingmode count
attr source packetDropReasonIsAddressResolutionFailed(packetDropped)
attr title "packet drop: address resolution failed, count"
scalar Network.host[1].ipv4.ip packetDropAddressResolutionFailed:sum(packetBytes) 0
attr interpolationmode none
attr recordingmode sum(packetBytes)
attr source packetDropReasonIsAddressResolutionFailed(packetDropped)
attr title "packet drop: address resolution failed, sum(packetBytes)"
scalar Network.host[1].ipv4.ip packetDropHopLimitReached:count 0
attr interpolationmode none
attr recordingmode count
attr source packetDropReasonIsHopLimitReached(packetDropped)
attr title "packet drop: hop limit reached, count"
scalar Network.host[1].ipv4.ip packetDropHopLimitReached:sum(packetBytes) 0
attr interpolationmode none
attr recordingmode sum(packetBytes)
attr source packetDropReasonIsHopLimitReached(packetDropped)
attr title "packet drop: hop limit reached, sum(packetBytes)"
scalar Network.host[1].ipv4.ip packetDropForwardingDisabled:count 0
attr interpolationmode none
attr recordingmode count
attr source packetDropReasonIsForwardingDisabled(packetDropped)
attr title "packet drop: forwarding disabled, count"
scalar Network.host[1].ipv4.ip packetDropForwardingDisabled:sum(packetBytes) 0
attr interpolationmode none
attr recordingmode sum(packetBytes)
attr source packetDropReasonIsForwardingDisabled(packetDropped)
attr title "packet drop: forwarding disabled, sum(packetBytes)"
scalar Network.host[1].ipv4.ip packetDropNoInterfaceFound:count 0
attr interpolationmode none
attr recordingmode count
attr source packetDropReasonIsNoInterfaceFound(packetDropped)
attr title "packet drop: no interface found, count"
scalar Network.host[1].ipv4.ip packetDropNoInterfaceFound:sum(packetBytes) 0
attr interpolationmode none
attr recordingmode sum(packetBytes)
attr source packetDropReasonIsNoInterfaceFound(packetDropped)
attr title "packet drop: no interface found, sum(packetBytes)"
scalar Network.host[1].ipv4.ip packetDropNoRouteFound:count 0
attr interpolationmode none
attr recordingmode count
attr source packetDropReasonIsNoRouteFound(packetDropped)
attr title "packet drop: no route found, count"
scalar Network.host[1].ipv4.ip packetDropNoRouteFound:sum(packetBytes) 0
attr interpolationmode none
attr recordingmode sum(packetBytes)
attr source packetDropReasonIsNoRouteFound(packetDropped)
attr title "packet drop: no route found, sum(packetBytes)"
scalar Network.host[1].ipv4.ip packetDropUndefined:count 0
attr interpolationmode none
attr recordingmode count
attr source packetDropReasonIsUndefined(packetDropped)
attr title "packet drop: undefined, count"
scalar Network.host[1].ipv4.ip packetDropUndefined:sum(packetBytes) 0
attr interpolationmode none
attr recordingmode sum(packetBytes)
attr source packetDropReasonIsUndefined(packetDropped)
attr title "packet drop: undefined, sum(packetBytes)"
par Network.host[1].ipv4.arp typename "\"inet.networklayer.arp.ipv4.GlobalArp\""
par Network.host[1].ipv4.arp interfaceTableModule "\"Network.host[1].interfaceTable\""
par Network.host[1].ipv4.arp addressType "\"ipv4\""
attr enum ipv4,ipv6,mac,moduleid,modulepath
par Network.host[1].ipv4.lp typename "\"inet.common.MessageDispatcher\""
par Network.host[1].ipv4.lp displayStringTextFormat "\"processed %p pk (%l)\""
par Network.host[1].ipv4.lp forwardServiceRegistration true
par Network.host[1].ipv4.lp forwardProtocolRegistration true
par Network.host[1].ipv4 typename "\"inet.networklayer.ipv4.Ipv4NetworkLayer\""
par Network.host[1].ipv4 forwarding true
par Network.host[1].ipv4 multicastForwarding false
par Network.host[1].ipv4 interfaceTableModule "\"Network.host[1].interfaceTable\""
par Network.host[1].ipv4 displayStringTextFormat "\"%i\""
par Network.host[1].nl typename "\"inet.common.MessageDispatcher\""
par Network.host[1].nl displayStringTextFormat "\"processed %p pk (%l)\""
par Network.host[1].nl forwardServiceRegistration true
par Network.host[1].nl forwardProtocolRegistration true
par Network.host[1].udp typename "\"inet.transportlayer.udp.Udp\""
par Network.host[1].udp interfaceTableModule "\"Network.host[1].interfaceTable\""
par Network.host[1].udp icmpModule "\"^.ipv4.icmp\""
par Network.host[1].udp icmpv6Module "\"^.ipv6.icmpv6\""
par Network.host[1].udp crcMode "\"declared\""
attr enum disabled,declared,computed
par Network.host[1].udp defaultMulticastLoop true
scalar Network.host[1].udp packetReceived:count 691
attr interpolationmode none
attr recordingmode count
attr source packetReceived
attr title "packets received, count"
scalar Network.host[1].udp packetReceived:sum(packetBytes) 696528
attr interpolationmode none
attr recordingmode sum(packetBytes)
attr source packetReceived
attr title "packets received, sum(packetBytes)"
scalar Network.host[1].udp packetSent:count 0
attr interpolationmode none
attr recordingmode count
attr source packetSent
attr title "packets sent, count"
scalar Network.host[1].udp packetSent:sum(packetBytes) 0
attr interpolationmode none
attr recordingmode sum(packetBytes)
attr source packetSent
attr title "packets sent, sum(packetBytes)"
scalar Network.host[1].udp passedUpPk:count 691
attr interpolationmode none
attr recordingmode count
attr source packetSentToUpper
attr title "packets passed up, count"
scalar Network.host[1].udp droppedPkWrongPort:count 0
attr interpolationmode none
attr recordingmode count
attr source packetDropReasonIsNoPortFound(packetDropped)
attr title "packets dropped (wrong port), count"
scalar Network.host[1].udp droppedPkBadChecksum:count 0
attr interpolationmode none
attr recordingmode count
attr source packetDropReasonIsIncorrectlyReceived(packetDropped)
attr title "packets dropped (checksum error), count"
par Network.host[1].tcp typename "\"inet.transportlayer.tcp.Tcp\""
par Network.host[1].tcp crcMode "\"declared\""
attr enum declared,computed
par Network.host[1].tcp advertisedWindow 7504
par Network.host[1].tcp delayedAcksEnabled false
par Network.host[1].tcp nagleEnabled true
par Network.host[1].tcp limitedTransmitEnabled false
par Network.host[1].tcp increasedIWEnabled false
par Network.host[1].tcp sackSupport false
par Network.host[1].tcp windowScalingSupport false
par Network.host[1].tcp windowScalingFactor -1
par Network.host[1].tcp timestampSupport false
par Network.host[1].tcp mss 536
par Network.host[1].tcp msl 120s
attr unit s
par Network.host[1].tcp tcpAlgorithmClass "\"TcpReno\""
attr enum TcpVegas,TcpWestwood,TcpNewReno,TcpReno,TcpTahoe,TcpNoCongestionControl
par Network.host[1].tcp useDataNotification false
par Network.host[1].tcp dupthresh 3
par Network.host[1].tcp initialSsthresh 4294967295
par Network.host[1].tcp stopOperationExtraTime 0s
attr unit s
par Network.host[1].tcp stopOperationTimeout 2s
attr unit s
par Network.host[1].tcp ecnWillingness false
par Network.host[1].tcp dctcpGamma 0.0625
par Network.host[1].tn typename "\"inet.common.MessageDispatcher\""
par Network.host[1].tn displayStringTextFormat "\"processed %p pk (%l)\""
par Network.host[1].tn forwardServiceRegistration true
par Network.host[1].tn forwardProtocolRegistration true
par Network.host[1].app[0] typename "\"inet.applications.udpapp.customApp.DroneApp\""
par Network.host[1].app[0] interfaceTableModule "\"Network.host[1].interfaceTable\""
par Network.host[1].app[0] startTime 0s
attr unit s
par Network.host[1].app[0] stopTime -1s
attr unit s
par Network.host[1].app[0] receiveBroadcast false
par Network.host[1].app[0] multicastGroup "\"\""
par Network.host[1].app[0] multicastSources "\"\""
par Network.host[1].app[0] stopOperationExtraTime -1s
attr unit s
par Network.host[1].app[0] stopOperationTimeout 2s
attr unit s
scalar Network.host[1].app[0] packetReceived:count 0
attr interpolationmode none
attr recordingmode count
attr source packetReceived
attr title "packets received, count"
scalar Network.host[1].app[0] packetReceived:sum(packetBytes) 0
attr interpolationmode none
attr recordingmode sum(packetBytes)
attr source packetReceived
attr title "packets received, sum(packetBytes)"
statistic Network.host[1].app[0] endToEndDelay:histogram
field count 0
field mean -nan
field stddev nan
field min nan
field max nan
field sum 0
field sqrsum 0
attr interpolationmode none
attr recordingmode histogram
attr source dataAge(packetReceived)
attr title "end-to-end delay"
attr unit s
bin	-inf	0
bin	0	0
bin	1	0
par Network.host[1].at typename "\"inet.common.MessageDispatcher\""
par Network.host[1].at displayStringTextFormat "\"processed %p pk (%l)\""
par Network.host[1].at forwardServiceRegistration true
par Network.host[1].at forwardProtocolRegistration true
par Network.host[1] typename "\"inet.node.inet.ArdusimHost\""
par Network.host[1] hasStatus false
par Network.host[1] osgModel "\"\""
par Network.host[1] osgModelColor "\"\""
par Network.host[1] canvasImage "\"\""
par Network.host[1] canvasImageColor "\"\""
par Network.host[1] recordPcap false
par Network.host[1] numPcapRecorders 0
par Network.host[1] numLoInterfaces 1
par Network.host[1] numWlanInterfaces 1
par Network.host[1] numEthInterfaces 0
par Network.host[1] numPppInterfaces 0
par Network.host[1] numTunInterfaces 0
par Network.host[1] numVirtInterfaces 0
par Network.host[1] fcsMode "\"declared\""
attr enum declared,computed
par Network.host[1] hasIpv4 true
par Network.host[1] hasIpv6 false
par Network.host[1] hasGn false
par Network.host[1] forwarding true
par Network.host[1] multicastForwarding false
par Network.host[1] hasUdp true
par Network.host[1] hasTcp true
par Network.host[1] hasSctp false
par Network.host[1] numApps 1
par Network.trig typename "\"inet.applications.udpapp.Trigger\""
par Network typename "\"src.NED.Network\""
par Network numUAVs 2
attr prompt "Number of clients:"

